%pal nprocs 1 end
! hf sto-3g TightSCF
! Opt Freq
* xyz 0 2
  6     -1.302684 -0.249846 0.100751
  6     0.033014 0.423388 -0.271459
  8     1.193483 -0.333731 0.038038
  1     -2.131797 0.395492 -0.172081
  1     -1.413654 -1.196070 -0.422384
  1     -1.354277 -0.440276 1.169359
  1     0.071442 0.675526 -1.334926
  1     0.070793 1.537058 0.328988
  1     1.098959 -0.551812 0.999924
  1     0.089217 2.402629 0.797792
*

