 10
 * E = -152.599208 hartree ; s = -2.0000 (bw200)
  H    -1.008462   -0.016614   -1.982314
  C    -0.994756   +0.015467   -0.897288
  C    +0.465021   +0.027360   -0.385329
  H    -1.518351   +0.908240   -0.569542
  H    -1.528016   -0.853686   -0.522491
  O    +0.564241   +0.170631   +1.038102
  H    +0.976148   -0.880929   -0.728883
  H    +0.992642   +0.881875   -0.818328
  H    +0.092378   -0.624698   +1.392812
  H    -0.653710   -2.631949   +2.025376
 10
 * E = -152.599096 hartree ; s = -1.9000 (bw190)
  H    -1.007659   -0.012383   -1.982781
  C    -0.994927   +0.015365   -0.897622
  C    +0.464567   +0.026634   -0.384640
  H    -1.519503   +0.906436   -0.566817
  H    -1.527845   -0.855678   -0.526783
  O    +0.563549   +0.168643   +1.038870
  H    +0.975883   -0.881225   -0.729035
  H    +0.992262   +0.881619   -0.816627
  H    +0.094573   -0.628516   +1.392914
  H    -0.636648   -2.586600   +2.009289
 10
 * E = -152.598960 hartree ; s = -1.8000 (bw180)
  H    -1.006744   -0.008472   -1.983297
  C    -0.995121   +0.015297   -0.898027
  C    +0.464063   +0.025899   -0.383904
  H    -1.520578   +0.904848   -0.564540
  H    -1.527888   -0.857409   -0.530939
  O    +0.562843   +0.166670   +1.039668
  H    +0.975574   -0.881519   -0.729149
  H    +0.991827   +0.881349   -0.814891
  H    +0.097917   -0.632938   +1.393080
  H    -0.619503   -2.541322   +1.993279
 10
 * E = -152.598795 hartree ; s = -1.7000 (bw170)
  H    -1.005734   -0.004918   -1.983847
  C    -0.995329   +0.015260   -0.898487
  C    +0.463519   +0.025160   -0.383130
  H    -1.521560   +0.903489   -0.562703
  H    -1.528125   -0.858874   -0.534899
  O    +0.562115   +0.164700   +1.040486
  H    +0.975241   -0.881796   -0.729246
  H    +0.991340   +0.881085   -0.813113
  H    +0.102235   -0.637867   +1.393285
  H    -0.602265   -2.496132   +1.977351
 10
 * E = -152.598596 hartree ; s = -1.6000 (bw160)
  H    -1.004668   -0.001735   -1.984413
  C    -0.995542   +0.015250   -0.898981
  C    +0.462953   +0.024430   -0.382330
  H    -1.522434   +0.902353   -0.561267
  H    -1.528524   -0.860083   -0.538609
  O    +0.561357   +0.162724   +1.041313
  H    +0.974910   -0.882035   -0.729347
  H    +0.990808   +0.880853   -0.811293
  H    +0.107273   -0.643160   +1.393497
  H    -0.584913   -2.451027   +1.961497
 10
 * E = -152.598356 hartree ; s = -1.5000 (bw150)
  H    -1.003578   +0.001085   -1.984976
  C    -0.995752   +0.015260   -0.899487
  C    +0.462381   +0.023714   -0.381520
  H    -1.523194   +0.901423   -0.560170
  H    -1.529047   -0.861060   -0.542036
  O    +0.560565   +0.160726   +1.042138
  H    +0.974606   -0.882222   -0.729483
  H    +0.990239   +0.880668   -0.809429
  H    +0.112747   -0.648663   +1.393689
  H    -0.567431   -2.405986   +1.945706
 10
 * E = -152.598070 hartree ; s = -1.4000 (bw140)
  H    -1.002495   +0.003560   -1.985515
  C    -0.995949   +0.015285   -0.899982
  C    +0.461815   +0.023017   -0.380701
  H    -1.523835   +0.900677   -0.559353
  H    -1.529660   -0.861831   -0.545159
  O    +0.559735   +0.158699   +1.042950
  H    +0.974350   -0.882343   -0.729668
  H    +0.989638   +0.880548   -0.807514
  H    +0.118390   -0.654241   +1.393843
  H    -0.549800   -2.360982   +1.929965
 10
 * E = -152.597730 hartree ; s = -1.3000 (bw130)
  H    -1.001448   +0.005718   -1.986019
  C    -0.996128   +0.015320   -0.900453
  C    +0.461271   +0.022345   -0.379888
  H    -1.524354   +0.900093   -0.558752
  H    -1.530327   -0.862421   -0.547967
  O    +0.558863   +0.156635   +1.043740
  H    +0.974163   -0.882390   -0.729920
  H    +0.989019   +0.880506   -0.805544
  H    +0.123972   -0.659785   +1.393943
  H    -0.532007   -2.315992   +1.914260
 10
 * E = -152.597327 hartree ; s = -1.2000 (bw120)
  H    -1.000464   +0.007583   -1.986478
  C    -0.996284   +0.015360   -0.900887
  C    +0.460756   +0.021695   -0.379085
  H    -1.524756   +0.899644   -0.558312
  H    -1.531019   -0.862861   -0.550462
  O    +0.557951   +0.154532   +1.044500
  H    +0.974054   -0.882360   -0.730250
  H    +0.988389   +0.880545   -0.803514
  H    +0.129307   -0.665219   +1.393986
  H    -0.514045   -2.271000   +1.898582
 10
 * E = -152.596854 hartree ; s = -1.1000 (bw110)
  H    -0.999570   +0.009188   -1.986890
  C    -0.996416   +0.015404   -0.901281
  C    +0.460278   +0.021070   -0.378300
  H    -1.525051   +0.899309   -0.557986
  H    -1.531709   -0.863171   -0.552649
  O    +0.557000   +0.152388   +1.045231
  H    +0.974033   -0.882250   -0.730663
  H    +0.987763   +0.880669   -0.801421
  H    +0.134261   -0.670500   +1.393980
  H    -0.495913   -2.225996   +1.882923
 10
 * E = -152.596300 hartree ; s = -1.0000 (bw100)
  H    -0.998797   +0.010557   -1.987258
  C    -0.996527   +0.015454   -0.901636
  C    +0.459841   +0.020470   -0.377541
  H    -1.525256   +0.899064   -0.557739
  H    -1.532370   -0.863377   -0.554540
  O    +0.556015   +0.150207   +1.045938
  H    +0.974095   -0.882067   -0.731164
  H    +0.987162   +0.880871   -0.799265
  H    +0.138740   -0.675622   +1.393936
  H    -0.477615   -2.180979   +1.867279
 10
 * E = -152.595655 hartree ; s = -0.9000 (bw90)
  H    -0.998171   +0.011711   -1.987588
  C    -0.996621   +0.015504   -0.901957
  C    +0.459448   +0.019893   -0.376820
  H    -1.525386   +0.898886   -0.557539
  H    -1.532975   -0.863506   -0.556144
  O    +0.555003   +0.147994   +1.046631
  H    +0.974236   -0.881819   -0.731753
  H    +0.986599   +0.881143   -0.797055
  H    +0.142678   -0.680604   +1.393876
  H    -0.459158   -2.135950   +1.851648
 10
 * E = -152.594908 hartree ; s = -0.8000 (bw80)
  H    -0.997713   +0.012674   -1.987888
  C    -0.996699   +0.015554   -0.902249
  C    +0.459096   +0.019340   -0.376155
  H    -1.525458   +0.898754   -0.557363
  H    -1.533499   -0.863576   -0.557475
  O    +0.553969   +0.145755   +1.047330
  H    +0.974446   -0.881520   -0.732423
  H    +0.986097   +0.881471   -0.794807
  H    +0.146032   -0.685506   +1.393829
  H    -0.440553   -2.090920   +1.836033
 10
 * E = -152.594051 hartree ; s = -0.7000 (bw70)
  H    -0.997433   +0.013467   -1.988163
  C    -0.996768   +0.015604   -0.902518
  C    +0.458782   +0.018808   -0.375573
  H    -1.525482   +0.898657   -0.557193
  H    -1.533920   -0.863608   -0.558547
  O    +0.552922   +0.143500   +1.048057
  H    +0.974714   -0.881184   -0.733168
  H    +0.985675   +0.881841   -0.792547
  H    +0.148770   -0.690422   +1.393831
  H    -0.421810   -2.045890   +1.820436
 10
 * E = -152.593071 hartree ; s = -0.6000 (bw60)
  H    -0.997316   +0.014111   -1.988417
  C    -0.996828   +0.015661   -0.902767
  C    +0.458499   +0.018297   -0.375111
  H    -1.525472   +0.898591   -0.557023
  H    -1.534216   -0.863617   -0.559378
  O    +0.551872   +0.141240   +1.048836
  H    +0.975036   -0.880831   -0.733967
  H    +0.985350   +0.882243   -0.790304
  H    +0.150848   -0.695495   +1.393938
  H    -0.402942   -2.000870   +1.804862
 10
 * E = -152.591963 hartree ; s = -0.5000 (bw50)
  H    -0.997325   +0.014625   -1.988650
  C    -0.996880   +0.015721   -0.902995
  C    +0.458235   +0.017808   -0.374806
  H    -1.525436   +0.898545   -0.556853
  H    -1.534372   -0.863624   -0.559987
  O    +0.550826   +0.138994   +1.049693
  H    +0.975417   -0.880475   -0.734774
  H    +0.985137   +0.882665   -0.788106
  H    +0.152201   -0.700946   +1.394234
  H    -0.383967   -1.955881   +1.789327
 10
 * E = -152.590724 hartree ; s = -0.4000 (bw40)
  H    -0.997402   +0.015032   -1.988856
  C    -0.996930   +0.015781   -0.903196
  C    +0.457975   +0.017343   -0.374701
  H    -1.525384   +0.898519   -0.556687
  H    -1.534384   -0.863641   -0.560393
  O    +0.549800   +0.136783   +1.050640
  H    +0.975868   -0.880136   -0.735524
  H    +0.985053   +0.883105   -0.785983
  H    +0.152702   -0.707143   +1.394869
  H    -0.364907   -1.910959   +1.773852
 10
 * E = -152.589363 hartree ; s = -0.3000 (bw30)
  H    -0.997475   +0.015359   -1.989027
  C    -0.996970   +0.015842   -0.903362
  C    +0.457715   +0.016908   -0.374833
  H    -1.525328   +0.898516   -0.556539
  H    -1.534255   -0.863674   -0.560622
  O    +0.548820   +0.134658   +1.051679
  H    +0.976406   -0.879833   -0.736120
  H    +0.985113   +0.883564   -0.783963
  H    +0.152057   -0.714809   +1.396139
  H    -0.345809   -1.866198   +1.758487
 10
 * E = -152.587915 hartree ; s = -0.2000 (bw20)
  H    -0.997464   +0.015627   -1.989156
  C    -0.997010   +0.015903   -0.903482
  C    +0.457445   +0.016513   -0.375218
  H    -1.525286   +0.898535   -0.556423
  H    -1.534002   -0.863722   -0.560700
  O    +0.547953   +0.132765   +1.052744
  H    +0.977032   -0.879568   -0.736434
  H    +0.985329   +0.884056   -0.782092
  H    +0.149354   -0.725983   +1.398895
  H    -0.326859   -1.822008   +1.743398
 10
 * E = -152.586489 hartree ; s = -0.1000 (bw10)
  H    -0.997312   +0.015845   -1.989236
  C    -0.997041   +0.015959   -0.903548
  C    +0.457189   +0.016190   -0.375783
  H    -1.525273   +0.898573   -0.556352
  H    -1.533676   -0.863758   -0.560669
  O    +0.547430   +0.131605   +1.053561
  H    +0.977671   -0.879320   -0.736333
  H    +0.985689   +0.884568   -0.780509
  H    +0.141885   -0.746450   +1.405637
  H    -0.309169   -1.780943   +1.729493
 10
 * E = -152.585664 hartree ; s = -0.0000 (saddle)
  H    -0.997070   +0.015999   -1.989271
  C    -0.997070   +0.015999   -0.903561
  C    +0.457008   +0.015999   -0.376303
  H    -1.525282   +0.898615   -0.556322
  H    -1.533386   -0.863766   -0.560600
  O    +0.547485   +0.131699   +1.053764
  H    +0.978163   -0.879101   -0.735867
  H    +0.986073   +0.885000   -0.779424
  H    +0.128219   -0.779157   +1.417904
  H    -0.295253   -1.748754   +1.718715
 10
 * E = -152.587274 hartree ; s =  0.1000 (fw10)
  H    -0.996814   +0.016117   -1.989289
  C    -0.997100   +0.016027   -0.903555
  C    +0.456883   +0.015895   -0.376732
  H    -1.525302   +0.898663   -0.556307
  H    -1.533149   -0.863758   -0.560540
  O    +0.547818   +0.132408   +1.053624
  H    +0.978555   -0.878928   -0.735268
  H    +0.986419   +0.885335   -0.778648
  H    +0.112168   -0.816474   +1.432463
  H    -0.283862   -1.722446   +1.709996
 10
 * E = -152.593076 hartree ; s =  0.2000 (fw20)
  H    -0.996554   +0.016209   -1.989295
  C    -0.997130   +0.016047   -0.903535
  C    +0.456805   +0.015873   -0.377093
  H    -1.525322   +0.898703   -0.556303
  H    -1.532956   -0.863742   -0.560490
  O    +0.548301   +0.133456   +1.053261
  H    +0.978884   -0.878813   -0.734563
  H    +0.986728   +0.885575   -0.778138
  H    +0.094997   -0.855959   +1.448320
  H    -0.274178   -1.700098   +1.702707
 10
 * E = -152.602613 hartree ; s =  0.3000 (fw30)
  H    -0.996294   +0.016286   -1.989294
  C    -0.997160   +0.016067   -0.903506
  C    +0.456760   +0.015915   -0.377427
  H    -1.525352   +0.898743   -0.556303
  H    -1.532789   -0.863722   -0.560448
  O    +0.548858   +0.134678   +1.052776
  H    +0.979204   -0.878756   -0.733756
  H    +0.987028   +0.885755   -0.777829
  H    +0.077354   -0.896443   +1.464941
  H    -0.265510   -1.680084   +1.696310
 10
 * E = -152.613316 hartree ; s =  0.4000 (fw40)
  H    -0.996024   +0.016356   -1.989284
  C    -0.997190   +0.016087   -0.903473
  C    +0.456737   +0.016016   -0.377773
  H    -1.525386   +0.898783   -0.556309
  H    -1.532635   -0.863703   -0.560408
  O    +0.549512   +0.136123   +1.052166
  H    +0.979550   -0.878753   -0.732801
  H    +0.987345   +0.885890   -0.777702
  H    +0.059251   -0.937985   +1.482494
  H    -0.258213   -1.663199   +1.691045
 10
 * E = -152.622170 hartree ; s =  0.5000 (fw50)
  H    -0.995718   +0.016426   -1.989262
  C    -0.997229   +0.016114   -0.903429
  C    +0.456734   +0.016197   -0.378199
  H    -1.525435   +0.898830   -0.556319
  H    -1.532470   -0.863693   -0.560366
  O    +0.550387   +0.138064   +1.051335
  H    +0.979988   -0.878821   -0.731542
  H    +0.987746   +0.885993   -0.777806
  H    +0.040599   -0.980860   +1.501885
  H    -0.254209   -1.653799   +1.688183
 10
 * E = -152.628014 hartree ; s =  0.6000 (fw60)
  H    -0.995360   +0.016504   -1.989219
  C    -0.997279   +0.016157   -0.903371
  C    +0.456761   +0.016521   -0.378816
  H    -1.525511   +0.898891   -0.556338
  H    -1.532272   -0.863700   -0.560301
  O    +0.551673   +0.140937   +1.050123
  H    +0.980608   -0.879016   -0.729711
  H    +0.988320   +0.886048   -0.778381
  H    +0.023165   -1.021152   +1.523616
  H    -0.258590   -1.663472   +1.690972
 10
 * E = -152.632524 hartree ; s =  0.7000 (fw70)
  H    -0.995059   +0.016564   -1.989167
  C    -0.997329   +0.016212   -0.903311
  C    +0.456832   +0.016964   -0.379559
  H    -1.525601   +0.898958   -0.556358
  H    -1.532062   -0.863735   -0.560206
  O    +0.553136   +0.144231   +1.048768
  H    +0.981279   -0.879318   -0.727619
  H    +0.988978   +0.885999   -0.779590
  H    +0.009559   -1.052934   +1.544748
  H    -0.270186   -1.689642   +1.698473
 10
 * E = -152.636457 hartree ; s =  0.8000 (fw80)
  H    -0.994886   +0.016595   -1.989117
  C    -0.997379   +0.016272   -0.903262
  C    +0.456955   +0.017487   -0.380358
  H    -1.525691   +0.899022   -0.556375
  H    -1.531838   -0.863785   -0.560076
  O    +0.554573   +0.147506   +1.047457
  H    +0.981874   -0.879666   -0.725546
  H    +0.989635   +0.885825   -0.781384
  H    -0.002703   -1.081822   +1.565462
  H    -0.283205   -1.719169   +1.707031
 10
 * E = -152.639902 hartree ; s =  0.9000 (fw90)
  H    -0.994863   +0.016593   -1.989079
  C    -0.997419   +0.016336   -0.903226
  C    +0.457132   +0.018085   -0.381212
  H    -1.525779   +0.899082   -0.556385
  H    -1.531590   -0.863834   -0.559900
  O    +0.555972   +0.150731   +1.046208
  H    +0.982353   -0.880044   -0.723527
  H    +0.990285   +0.885514   -0.783756
  H    -0.014730   -1.110303   +1.586290
  H    -0.296315   -1.749063   +1.715896
 10
 * E = -152.642912 hartree ; s =  1.0000 (fw100)
  H    -0.995015   +0.016552   -1.989057
  C    -0.997453   +0.016406   -0.903204
  C    +0.457368   +0.018760   -0.382124
  H    -1.525861   +0.899139   -0.556393
  H    -1.531304   -0.863870   -0.559660
  O    +0.557330   +0.153902   +1.045025
  H    +0.982693   -0.880443   -0.721577
  H    +0.990936   +0.885063   -0.786690
  H    -0.026692   -1.138703   +1.607279
  H    -0.309340   -1.778977   +1.725014
 10
 * E = -152.645538 hartree ; s =  1.1000 (fw110)
  H    -0.995356   +0.016462   -1.989053
  C    -0.997479   +0.016478   -0.903199
  C    +0.457661   +0.019513   -0.383095
  H    -1.525941   +0.899188   -0.556393
  H    -1.530969   -0.863894   -0.559335
  O    +0.558647   +0.157019   +1.043907
  H    +0.982883   -0.880863   -0.719700
  H    +0.991603   +0.884476   -0.790150
  H    -0.038644   -1.167065   +1.628410
  H    -0.322228   -1.808860   +1.734403
 10
 * E = -152.647823 hartree ; s =  1.2000 (fw120)
  H    -0.995908   +0.016314   -1.989071
  C    -0.997496   +0.016558   -0.903216
  C    +0.458006   +0.020345   -0.384126
  H    -1.526021   +0.899229   -0.556393
  H    -1.530571   -0.863895   -0.558904
  O    +0.559923   +0.160081   +1.042851
  H    +0.982924   -0.881302   -0.717883
  H    +0.992308   +0.883762   -0.794073
  H    -0.050637   -1.195392   +1.649655
  H    -0.334937   -1.838695   +1.744090
 10
 * E = -152.649810 hartree ; s =  1.3000 (fw130)
  H    -0.996673   +0.016096   -1.989111
  C    -0.997503   +0.016642   -0.903256
  C    +0.458398   +0.021257   -0.385216
  H    -1.526094   +0.899267   -0.556399
  H    -1.530098   -0.863871   -0.558340
  O    +0.561165   +0.163083   +1.041851
  H    +0.982829   -0.881755   -0.716090
  H    +0.993072   +0.882937   -0.798388
  H    -0.062733   -1.223674   +1.670990
  H    -0.347416   -1.868482   +1.754101
 10
 * E = -152.651534 hartree ; s =  1.4000 (fw140)
  H    -0.997654   +0.015791   -1.989178
  C    -0.997501   +0.016732   -0.903322
  C    +0.458826   +0.022253   -0.386361
  H    -1.526164   +0.899303   -0.556418
  H    -1.529539   -0.863814   -0.557620
  O    +0.562375   +0.166020   +1.040892
  H    +0.982626   -0.882215   -0.714263
  H    +0.993918   +0.882019   -0.803010
  H    -0.075009   -1.251889   +1.692383
  H    -0.359616   -1.898226   +1.764474
 10
 * E = -152.653028 hartree ; s =  1.5000 (fw150)
  H    -0.998844   +0.015382   -1.989273
  C    -0.997491   +0.016831   -0.903417
  C    +0.459278   +0.023338   -0.387549
  H    -1.526226   +0.899345   -0.556467
  H    -1.528889   -0.863718   -0.556724
  O    +0.563562   +0.168884   +1.039962
  H    +0.982349   -0.882668   -0.712320
  H    +0.994864   +0.881022   -0.807872
  H    -0.087559   -1.280001   +1.713800
  H    -0.371477   -1.927944   +1.775247
 10
 * E = -152.654322 hartree ; s =  1.6000 (fw160)
  H    -1.000218   +0.014848   -1.989398
  C    -0.997472   +0.016931   -0.903545
  C    +0.459738   +0.024529   -0.388771
  H    -1.526286   +0.899399   -0.556577
  H    -1.528150   -0.863577   -0.555634
  O    +0.564737   +0.171665   +1.039048
  H    +0.982035   -0.883104   -0.710152
  H    +0.995918   +0.879962   -0.812932
  H    -0.100491   -1.307960   +1.735188
  H    -0.382937   -1.957657   +1.786468
 10
 * E = -152.655441 hartree ; s =  1.7000 (fw170)
  H    -1.001747   +0.014162   -1.989554
  C    -0.997452   +0.017031   -0.903707
  C    +0.460196   +0.025848   -0.390016
  H    -1.526342   +0.899477   -0.556783
  H    -1.527334   -0.863383   -0.554341
  O    +0.565913   +0.174344   +1.038138
  H    +0.981715   -0.883509   -0.707631
  H    +0.997073   +0.878842   -0.818208
  H    -0.113937   -1.335700   +1.756468
  H    -0.393917   -1.987384   +1.798204
 10
 * E = -152.656409 hartree ; s =  1.8000 (fw180)
  H    -1.003384   +0.013294   -1.989741
  C    -0.997432   +0.017125   -0.903906
  C    +0.460639   +0.027331   -0.391270
  H    -1.526405   +0.899593   -0.557141
  H    -1.526460   -0.863126   -0.552838
  O    +0.567104   +0.176896   +1.037226
  H    +0.981402   -0.883880   -0.704586
  H    +0.998313   +0.877645   -0.823793
  H    -0.128043   -1.363139   +1.777514
  H    -0.404332   -2.017142   +1.810541
 10
 * E = -152.657247 hartree ; s =  1.9000 (fw190)
  H    -1.005063   +0.012211   -1.989959
  C    -0.997419   +0.017200   -0.904139
  C    +0.461060   +0.029036   -0.392530
  H    -1.526490   +0.899759   -0.557725
  H    -1.525552   -0.862802   -0.551118
  O    +0.568326   +0.179284   +1.036313
  H    +0.981082   -0.884231   -0.700787
  H    +0.999618   +0.876325   -0.829904
  H    -0.142974   -1.390172   +1.798099
  H    -0.414086   -2.046927   +1.823608
 10
 * E = -152.657975 hartree ; s =  2.0000 (fw200)
  H    -1.006704   +0.010864   -1.990196
  C    -0.997415   +0.017239   -0.904396
  C    +0.461462   +0.031053   -0.393796
  H    -1.526628   +0.899982   -0.558618
  H    -1.524632   -0.862412   -0.549162
  O    +0.569583   +0.181456   +1.035413
  H    +0.980698   -0.884605   -0.695876
  H    +1.000969   +0.874769   -0.836944
  H    -0.158887   -1.416656   +1.817828
  H    -0.423064   -2.076695   +1.837597
