 10
 * E = -152.597841 hartree ; s = -2.0000 (bw200)
  H    -1.105493   +0.000000   -2.070979
  C    -1.118797   +0.000000   -0.985369
  C    +0.318567   +0.000000   -0.429750
  H    -1.652398   +0.880887   -0.642207
  H    -1.652398   -0.880887   -0.642207
  O    +0.235289   +0.000000   +1.001865
  H    +0.855324   -0.883623   -0.797963
  H    +0.855324   +0.883623   -0.797963
  H    +1.178688   +0.000000   +1.299417
  H    +3.071376   +0.000000   +1.653106
 10
 * E = -152.597624 hartree ; s = -1.9000 (bw190)
  H    -1.107167   +0.000000   -2.068971
  C    -1.118106   +0.000000   -0.983344
  C    +0.320131   +0.000000   -0.430209
  H    -1.650957   +0.880864   -0.638963
  H    -1.650957   -0.880864   -0.638963
  O    +0.237528   +0.000000   +1.001271
  H    +0.856464   -0.883640   -0.799017
  H    +0.856464   +0.883640   -0.799017
  H    +1.180795   +0.000000   +1.298732
  H    +3.036301   +0.000000   +1.645964
 10
 * E = -152.597378 hartree ; s = -1.8000 (bw180)
  H    -1.108757   +0.000000   -2.066992
  C    -1.117420   +0.000000   -0.981353
  C    +0.321663   +0.000000   -0.430640
  H    -1.649547   +0.880842   -0.635803
  H    -1.649547   -0.880842   -0.635803
  O    +0.239795   +0.000000   +1.000703
  H    +0.857569   -0.883653   -0.800058
  H    +0.857569   +0.883653   -0.800058
  H    +1.182951   +0.000000   +1.298013
  H    +3.001212   +0.000000   +1.638789
 10
 * E = -152.597101 hartree ; s = -1.7000 (bw170)
  H    -1.110223   +0.000000   -2.065063
  C    -1.116749   +0.000000   -0.979416
  C    +0.323145   +0.000000   -0.431031
  H    -1.648196   +0.880824   -0.632777
  H    -1.648196   -0.880824   -0.632777
  O    +0.242108   +0.000000   +1.000175
  H    +0.858619   -0.883662   -0.801078
  H    +0.858619   +0.883662   -0.801078
  H    +1.185193   +0.000000   +1.297238
  H    +2.966100   +0.000000   +1.631578
 10
 * E = -152.596790 hartree ; s = -1.6000 (bw160)
  H    -1.111532   +0.000000   -2.063208
  C    -1.116101   +0.000000   -0.977555
  C    +0.324561   +0.000000   -0.431371
  H    -1.646926   +0.880808   -0.629929
  H    -1.646926   -0.880808   -0.629929
  O    +0.244485   +0.000000   +0.999703
  H    +0.859597   -0.883664   -0.802069
  H    +0.859597   +0.883664   -0.802069
  H    +1.187556   +0.000000   +1.296391
  H    +2.930961   +0.000000   +1.624328
 10
 * E = -152.596441 hartree ; s = -1.5000 (bw150)
  H    -1.112652   +0.000000   -2.061441
  C    -1.115483   +0.000000   -0.975787
  C    +0.325900   +0.000000   -0.431652
  H    -1.645753   +0.880798   -0.627291
  H    -1.645753   -0.880798   -0.627291
  O    +0.246939   +0.000000   +0.999298
  H    +0.860490   -0.883659   -0.803025
  H    +0.860490   +0.883659   -0.803025
  H    +1.190072   +0.000000   +1.295457
  H    +2.895796   +0.000000   +1.617040
 10
 * E = -152.596050 hartree ; s = -1.4000 (bw140)
  H    -1.113564   +0.000000   -2.059777
  C    -1.114898   +0.000000   -0.974123
  C    +0.327149   +0.000000   -0.431866
  H    -1.644695   +0.880791   -0.624892
  H    -1.644695   -0.880791   -0.624892
  O    +0.249478   +0.000000   +0.998971
  H    +0.861285   -0.883648   -0.803941
  H    +0.861285   +0.883648   -0.803941
  H    +1.192768   +0.000000   +1.294432
  H    +2.860611   +0.000000   +1.609712
 10
 * E = -152.595613 hartree ; s = -1.3000 (bw130)
  H    -1.114255   +0.000000   -2.058228
  C    -1.114354   +0.000000   -0.972573
  C    +0.328304   +0.000000   -0.432012
  H    -1.643761   +0.880790   -0.622751
  H    -1.643761   -0.880790   -0.622751
  O    +0.252106   +0.000000   +0.998729
  H    +0.861979   -0.883628   -0.804815
  H    +0.861979   +0.883628   -0.804815
  H    +1.195669   +0.000000   +1.293309
  H    +2.825415   +0.000000   +1.602345
 10
 * E = -152.595127 hartree ; s = -1.2000 (bw120)
  H    -1.114729   +0.000000   -2.056801
  C    -1.113854   +0.000000   -0.971145
  C    +0.329365   +0.000000   -0.432089
  H    -1.642958   +0.880795   -0.620877
  H    -1.642958   -0.880795   -0.620877
  O    +0.254826   +0.000000   +0.998576
  H    +0.862573   -0.883601   -0.805643
  H    +0.862573   +0.883601   -0.805643
  H    +1.198799   +0.000000   +1.292104
  H    +2.790221   +0.000000   +1.594940
 10
 * E = -152.594587 hartree ; s = -1.1000 (bw110)
  H    -1.114994   +0.000000   -2.055501
  C    -1.113403   +0.000000   -0.969841
  C    +0.330334   +0.000000   -0.432101
  H    -1.642292   +0.880805   -0.619270
  H    -1.642292   -0.880805   -0.619270
  O    +0.257634   +0.000000   +0.998521
  H    +0.863066   -0.883568   -0.806427
  H    +0.863066   +0.883568   -0.806427
  H    +1.202185   +0.000000   +1.290834
  H    +2.755042   +0.000000   +1.587502
 10
 * E = -152.593988 hartree ; s = -1.0000 (bw100)
  H    -1.115075   +0.000000   -2.054330
  C    -1.113005   +0.000000   -0.968665
  C    +0.331216   +0.000000   -0.432058
  H    -1.641759   +0.880819   -0.617924
  H    -1.641759   -0.880819   -0.617924
  O    +0.260524   +0.000000   +0.998566
  H    +0.863465   -0.883529   -0.807173
  H    +0.863465   +0.883529   -0.807173
  H    +1.205855   +0.000000   +1.289529
  H    +2.719890   +0.000000   +1.580031
 10
 * E = -152.593328 hartree ; s = -0.9000 (bw90)
  H    -1.115002   +0.000000   -2.053291
  C    -1.112664   +0.000000   -0.967617
  C    +0.332021   +0.000000   -0.431975
  H    -1.641359   +0.880838   -0.616826
  H    -1.641359   -0.880838   -0.616826
  O    +0.263488   +0.000000   +0.998712
  H    +0.863778   -0.883489   -0.807885
  H    +0.863778   +0.883489   -0.807885
  H    +1.209847   +0.000000   +1.288229
  H    +2.684778   +0.000000   +1.572531
 10
 * E = -152.592602 hartree ; s = -0.8000 (bw80)
  H    -1.114814   +0.000000   -2.052384
  C    -1.112385   +0.000000   -0.966698
  C    +0.332760   +0.000000   -0.431871
  H    -1.641084   +0.880861   -0.615960
  H    -1.641084   -0.880861   -0.615960
  O    +0.266513   +0.000000   +0.998968
  H    +0.864017   -0.883449   -0.808572
  H    +0.864017   +0.883449   -0.808572
  H    +1.214217   +0.000000   +1.286992
  H    +2.649716   +0.000000   +1.565008
 10
 * E = -152.591808 hartree ; s = -0.7000 (bw70)
  H    -1.114554   +0.000000   -2.051607
  C    -1.112174   +0.000000   -0.965906
  C    +0.333441   +0.000000   -0.431771
  H    -1.640925   +0.880891   -0.615302
  H    -1.640925   -0.880891   -0.615302
  O    +0.269583   +0.000000   +0.999341
  H    +0.864193   -0.883412   -0.809244
  H    +0.864193   +0.883412   -0.809244
  H    +1.219049   +0.000000   +1.285885
  H    +2.614719   +0.000000   +1.557468
 10
 * E = -152.590945 hartree ; s = -0.6000 (bw60)
  H    -1.114257   +0.000000   -2.050959
  C    -1.112033   +0.000000   -0.965240
  C    +0.334074   +0.000000   -0.431710
  H    -1.640870   +0.880926   -0.614832
  H    -1.640870   -0.880926   -0.614832
  O    +0.272674   +0.000000   +0.999840
  H    +0.864315   -0.883388   -0.809904
  H    +0.864315   +0.883388   -0.809904
  H    +1.224477   +0.000000   +1.284997
  H    +2.579805   +0.000000   +1.549918
 10
 * E = -152.590016 hartree ; s = -0.5000 (bw50)
  H    -1.113955   +0.000000   -2.050435
  C    -1.111964   +0.000000   -0.964696
  C    +0.334663   +0.000000   -0.431727
  H    -1.640903   +0.880970   -0.614526
  H    -1.640903   -0.880970   -0.614526
  O    +0.275751   +0.000000   +1.000473
  H    +0.864392   -0.883386   -0.810548
  H    +0.864392   +0.883386   -0.810548
  H    +1.230725   +0.000000   +1.284441
  H    +2.545003   +0.000000   +1.542378
 10
 * E = -152.589028 hartree ; s = -0.4000 (bw40)
  H    -1.113661   +0.000000   -2.050027
  C    -1.111964   +0.000000   -0.964267
  C    +0.335208   +0.000000   -0.431873
  H    -1.641002   +0.881028   -0.614360
  H    -1.641002   -0.881028   -0.614360
  O    +0.278745   +0.000000   +1.001240
  H    +0.864435   -0.883426   -0.811151
  H    +0.864435   +0.883426   -0.811151
  H    +1.238224   +0.000000   +1.284396
  H    +2.510390   +0.000000   +1.534871
 10
 * E = -152.587998 hartree ; s = -0.3000 (bw30)
  H    -1.113371   +0.000000   -2.049722
  C    -1.112028   +0.000000   -0.963942
  C    +0.335698   +0.000000   -0.432203
  H    -1.641148   +0.881103   -0.614311
  H    -1.641148   -0.881103   -0.614311
  O    +0.281509   +0.000000   +1.002110
  H    +0.864449   -0.883529   -0.811642
  H    +0.864449   +0.883529   -0.811642
  H    +1.247941   +0.000000   +1.285199
  H    +2.476188   +0.000000   +1.527459
 10
 * E = -152.586963 hartree ; s = -0.2000 (bw20)
  H    -1.113061   +0.000000   -2.049497
  C    -1.112141   +0.000000   -0.963708
  C    +0.336108   +0.000000   -0.432732
  H    -1.641314   +0.881199   -0.614351
  H    -1.641314   -0.881199   -0.614351
  O    +0.283679   +0.000000   +1.002958
  H    +0.864435   -0.883710   -0.811899
  H    +0.864435   +0.883710   -0.811899
  H    +1.261959   +0.000000   +1.287534
  H    +2.443201   +0.000000   +1.520336
 10
 * E = -152.586032 hartree ; s = -0.1000 (bw10)
  H    -1.112724   +0.000000   -2.049330
  C    -1.112271   +0.000000   -0.963547
  C    +0.336406   +0.000000   -0.433387
  H    -1.641470   +0.881306   -0.614443
  H    -1.641470   -0.881306   -0.614443
  O    +0.284709   +0.000000   +1.003540
  H    +0.864390   -0.883936   -0.811811
  H    +0.864390   +0.883936   -0.811811
  H    +1.282565   +0.000000   +1.292163
  H    +2.413481   +0.000000   +1.513961
 10
 * E = -152.585571 hartree ; s = -0.0000 (saddle)
  H    -1.112393   -0.000000   -2.049199
  C    -1.112393   -0.000000   -0.963439
  C    +0.336577   -0.000000   -0.434018
  H    -1.641599   +0.881414   -0.614541
  H    -1.641599   -0.881414   -0.614541
  O    +0.284441   -0.000000   +1.003697
  H    +0.864325   -0.884151   -0.811407
  H    +0.864325   +0.884152   -0.811406
  H    +1.309077   -0.000000   +1.298926
  H    +2.388852   -0.000000   +1.508732
 10
 * E = -152.586321 hartree ; s =  0.1000 (fw10)
  H    -1.112092   +0.000000   -2.049086
  C    -1.112502   +0.000000   -0.963361
  C    +0.336672   +0.000000   -0.434586
  H    -1.641705   +0.881513   -0.614635
  H    -1.641705   -0.881513   -0.614635
  O    +0.283488   +0.000000   +1.003588
  H    +0.864263   -0.884342   -0.810848
  H    +0.864262   +0.884343   -0.810847
  H    +1.338106   +0.000000   +1.306670
  H    +2.367497   +0.000000   +1.504239
 10
 * E = -152.589043 hartree ; s =  0.2000 (fw20)
  H    -1.111835   +0.000000   -2.048990
  C    -1.112597   +0.000000   -0.963308
  C    +0.336690   +0.000000   -0.435083
  H    -1.641790   +0.881606   -0.614723
  H    -1.641790   -0.881606   -0.614723
  O    +0.282055   +0.000000   +1.003268
  H    +0.864217   -0.884522   -0.810169
  H    +0.864216   +0.884523   -0.810168
  H    +1.368676   +0.000000   +1.315093
  H    +2.348786   +0.000000   +1.500362
 10
 * E = -152.594005 hartree ; s =  0.3000 (fw30)
  H    -1.111625   +0.000000   -2.048907
  C    -1.112687   +0.000000   -0.963275
  C    +0.336645   +0.000000   -0.435535
  H    -1.641862   +0.881696   -0.614803
  H    -1.641862   -0.881696   -0.614803
  O    +0.280377   +0.000000   +1.002823
  H    +0.864197   -0.884711   -0.809410
  H    +0.864196   +0.884712   -0.809409
  H    +1.399973   +0.000000   +1.323904
  H    +2.331615   +0.000000   +1.496869
 10
 * E = -152.600787 hartree ; s =  0.4000 (fw40)
  H    -1.111470   +0.000000   -2.048842
  C    -1.112777   +0.000000   -0.963262
  C    +0.336545   +0.000000   -0.435956
  H    -1.641923   +0.881786   -0.614884
  H    -1.641923   -0.881786   -0.614884
  O    +0.278515   +0.000000   +1.002283
  H    +0.864206   -0.884918   -0.808585
  H    +0.864205   +0.884918   -0.808585
  H    +1.431780   +0.000000   +1.333020
  H    +2.315692   +0.000000   +1.493706
 10
 * E = -152.608453 hartree ; s =  0.5000 (fw50)
  H    -1.111372   +0.000000   -2.048798
  C    -1.112867   +0.000000   -0.963271
  C    +0.336390   +0.000000   -0.436366
  H    -1.641977   +0.881876   -0.614974
  H    -1.641977   -0.881876   -0.614974
  O    +0.276440   +0.000000   +1.001653
  H    +0.864248   -0.885152   -0.807692
  H    +0.864247   +0.885152   -0.807692
  H    +1.464110   +0.000000   +1.342488
  H    +2.301268   +0.000000   +1.490922
 10
 * E = -152.615875 hartree ; s =  0.6000 (fw60)
  H    -1.111342   +0.000000   -2.048780
  C    -1.112969   +0.000000   -0.963307
  C    +0.336176   +0.000000   -0.436795
  H    -1.642027   +0.881966   -0.615073
  H    -1.642027   -0.881966   -0.615073
  O    +0.274024   +0.000000   +1.000908
  H    +0.864325   -0.885427   -0.806703
  H    +0.864324   +0.885427   -0.806703
  H    +1.497089   +0.000000   +1.352501
  H    +2.289305   +0.000000   +1.488696
 10
 * E = -152.622060 hartree ; s =  0.7000 (fw70)
  H    -1.111413   +0.000000   -2.048804
  C    -1.113098   +0.000000   -0.963389
  C    +0.335881   +0.000000   -0.437284
  H    -1.642077   +0.882056   -0.615193
  H    -1.642077   -0.882056   -0.615193
  O    +0.270992   +0.000000   +0.999981
  H    +0.864451   -0.885766   -0.805548
  H    +0.864450   +0.885766   -0.805548
  H    +1.530711   +0.000000   +1.363478
  H    +2.282252   +0.000000   +1.487471
 10
 * E = -152.626626 hartree ; s =  0.8000 (fw80)
  H    -1.111664   +0.000000   -2.048914
  C    -1.113284   +0.000000   -0.963559
  C    +0.335460   +0.000000   -0.437896
  H    -1.642127   +0.882149   -0.615347
  H    -1.642127   -0.882149   -0.615347
  O    +0.266963   +0.000000   +0.998783
  H    +0.864639   -0.886190   -0.804155
  H    +0.864639   +0.886190   -0.804155
  H    +1.563378   +0.000000   +1.375824
  H    +2.285197   +0.000000   +1.488111
 10
 * E = -152.630172 hartree ; s =  0.9000 (fw90)
  H    -1.112175   +0.000000   -2.049158
  C    -1.113536   +0.000000   -0.963858
  C    +0.334919   +0.000000   -0.438607
  H    -1.642179   +0.882234   -0.615531
  H    -1.642179   -0.882234   -0.615531
  O    +0.262174   +0.000000   +0.997420
  H    +0.864861   -0.886641   -0.802673
  H    +0.864861   +0.886641   -0.802673
  H    +1.591238   +0.000000   +1.388725
  H    +2.300185   +0.000000   +1.490873
 10
 * E = -152.633284 hartree ; s =  1.0000 (fw100)
  H    -1.112922   +0.000000   -2.049538
  C    -1.113841   +0.000000   -0.964283
  C    +0.334315   +0.000000   -0.439337
  H    -1.642239   +0.882296   -0.615731
  H    -1.642239   -0.882296   -0.615731
  O    +0.257270   +0.000000   +0.996096
  H    +0.865055   -0.887037   -0.801331
  H    +0.865055   +0.887037   -0.801331
  H    +1.615073   +0.000000   +1.401436
  H    +2.320946   +0.000000   +1.494631
 10
 * E = -152.636095 hartree ; s =  1.1000 (fw110)
  H    -1.113880   +0.000000   -2.050052
  C    -1.114199   +0.000000   -0.964837
  C    +0.333665   +0.000000   -0.440067
  H    -1.642317   +0.882335   -0.615959
  H    -1.642317   -0.882335   -0.615959
  O    +0.252436   +0.000000   +0.994862
  H    +0.865192   -0.887363   -0.800173
  H    +0.865192   +0.887363   -0.800173
  H    +1.637596   +0.000000   +1.414135
  H    +2.343241   +0.000000   +1.498705
 10
 * E = -152.638635 hartree ; s =  1.2000 (fw120)
  H    -1.115023   +0.000000   -2.050705
  C    -1.114615   +0.000000   -0.965525
  C    +0.332965   +0.000000   -0.440797
  H    -1.642433   +0.882353   -0.616237
  H    -1.642433   -0.882353   -0.616237
  O    +0.247701   +0.000000   +0.993737
  H    +0.865257   -0.887625   -0.799193
  H    +0.865257   +0.887625   -0.799193
  H    +1.659836   +0.000000   +1.426942
  H    +2.365902   +0.000000   +1.502927
 10
 * E = -152.640928 hartree ; s =  1.3000 (fw130)
  H    -1.116326   +0.000000   -2.051504
  C    -1.115095   +0.000000   -0.966353
  C    +0.332213   +0.000000   -0.441518
  H    -1.642604   +0.882351   -0.616592
  H    -1.642604   -0.882351   -0.616592
  O    +0.243069   +0.000000   +0.992716
  H    +0.865236   -0.887835   -0.798377
  H    +0.865236   +0.887835   -0.798377
  H    +1.682040   +0.000000   +1.439879
  H    +2.388670   +0.000000   +1.507271
 10
 * E = -152.642996 hartree ; s =  1.4000 (fw140)
  H    -1.117751   +0.000000   -2.052453
  C    -1.115646   +0.000000   -0.967328
  C    +0.331402   +0.000000   -0.442224
  H    -1.642852   +0.882332   -0.617056
  H    -1.642852   -0.882332   -0.617056
  O    +0.238555   +0.000000   +0.991804
  H    +0.865117   -0.888001   -0.797703
  H    +0.865117   +0.888001   -0.797703
  H    +1.704265   +0.000000   +1.452941
  H    +2.411490   +0.000000   +1.511738
 10
 * E = -152.644859 hartree ; s =  1.5000 (fw150)
  H    -1.119254   +0.000000   -2.053556
  C    -1.116272   +0.000000   -0.968453
  C    +0.330520   +0.000000   -0.442911
  H    -1.643198   +0.882297   -0.617666
  H    -1.643198   -0.882297   -0.617666
  O    +0.234173   +0.000000   +0.991002
  H    +0.864890   -0.888133   -0.797148
  H    +0.864890   +0.888133   -0.797148
  H    +1.726532   +0.000000   +1.466116
  H    +2.434340   +0.000000   +1.516335
 10
 * E = -152.646537 hartree ; s =  1.6000 (fw160)
  H    -1.120782   +0.000000   -2.054818
  C    -1.116979   +0.000000   -0.969732
  C    +0.329560   +0.000000   -0.443569
  H    -1.643664   +0.882252   -0.618458
  H    -1.643664   -0.882252   -0.618458
  O    +0.229933   +0.000000   +0.990308
  H    +0.864547   -0.888234   -0.796689
  H    +0.864547   +0.888234   -0.796689
  H    +1.748852   +0.000000   +1.479391
  H    +2.457207   +0.000000   +1.521068
 10
 * E = -152.648047 hartree ; s =  1.7000 (fw170)
  H    -1.122274   +0.000000   -2.056240
  C    -1.117770   +0.000000   -0.971167
  C    +0.328505   +0.000000   -0.444191
  H    -1.644271   +0.882200   -0.619472
  H    -1.644271   -0.882200   -0.619472
  O    +0.225849   +0.000000   +0.989723
  H    +0.864078   -0.888312   -0.796297
  H    +0.864078   +0.888312   -0.796297
  H    +1.771229   +0.000000   +1.492757
  H    +2.480077   +0.000000   +1.525943
 10
 * E = -152.649404 hartree ; s =  1.8000 (fw180)
  H    -1.123669   +0.000000   -2.057825
  C    -1.118648   +0.000000   -0.972759
  C    +0.327345   +0.000000   -0.444766
  H    -1.645040   +0.882143   -0.620745
  H    -1.645040   -0.882143   -0.620745
  O    +0.221935   +0.000000   +0.989241
  H    +0.863472   -0.888370   -0.795952
  H    +0.863472   +0.888370   -0.795952
  H    +1.793667   +0.000000   +1.506196
  H    +2.502943   +0.000000   +1.530968
 10
 * E = -152.649154 hartree ; s =  1.9000 (fw190)
  H    -1.127261   +0.000000   -2.060377
  C    -1.119402   +0.000000   -0.975339
  C    +0.324632   +0.000000   -0.445534
  H    -1.645323   +0.881696   -0.621902
  H    -1.645323   -0.881696   -0.621902
  O    +0.219179   +0.000000   +0.989309
  H    +0.865349   -0.887526   -0.789927
  H    +0.865349   +0.887526   -0.789927
  H    +1.813914   +0.000000   +1.515629
  H    +2.525429   +0.000000   +1.537347
 10
 * E = -152.650661 hartree ; s =  2.0000 (fw200)
  H    -1.133480   +0.000000   -2.064550
  C    -1.120215   +0.000000   -0.979594
  C    +0.320089   +0.000000   -0.445888
  H    -1.645148   +0.881024   -0.623213
  H    -1.645148   -0.881024   -0.623213
  O    +0.217841   +0.000000   +0.990162
  H    +0.869447   -0.886527   -0.778239
  H    +0.869447   +0.886527   -0.778239
  H    +1.834264   +0.000000   +1.519265
  H    +2.546458   +0.000000   +1.546102
