%pal nprocs 1 end
! hf sto-3g TightSCF
! Opt Freq
* xyz 0 2
  6     1.236838 -0.004272 -0.230753
  6     -0.130195 -0.531091 0.244564
  8     -1.224076 0.326225 -0.110701
  1     1.494827 1.096057 0.393634
  1     2.052125 -0.675757 0.020823
  1     1.247972 0.249569 -1.286468
  1     -0.095480 -0.705276 1.327572
  1     -0.329185 -1.496780 -0.232553
  1     -1.027592 1.174468 0.362652
  1     1.680778 1.888487 0.849054
*

