%pal nprocs 1 end
! hf sto-3g TightSCF
! Opt Freq
* xyz 0 2
  6     1.280734 0.341221 -0.082642
  6     0.036500 -0.506105 0.272717
  8     -1.185857 0.012667 -0.278093
  1     2.178215 -0.147045 0.284633
  1     1.364335 0.457526 -1.158787
  1     1.218663 1.327820 0.366815
  1     0.151414 -1.509068 -0.149703
  1     -0.034069 -0.616537 1.361259
  1     -1.333070 0.936910 0.233883
  1     -1.431204 1.864687 0.816600
*

