%pal nprocs 1 end
! hf sto-3g TightSCF
! Opt Freq
* xyz 0 2
  6     1.337186 -0.177551 -0.000200
  6     -0.028261 0.540278 -0.000516
  8     -1.058330 -0.463969 0.001294
  1     2.141571 0.551719 -0.001191
  1     1.434412 -0.803083 0.881806
  1     1.433872 -0.804892 -0.880978
  1     -0.102680 1.186015 0.882746
  1     -0.103506 1.183622 -0.885449
  1     -1.965270 0.096789 0.000157
  1     -2.846559 0.755269 -0.001001
*

