%pal nprocs 1 end
! hf sto-3g TightSCF
! Opt Freq
* xyz 0 2
  6     1.299448 -0.215448 -0.077153
  6     -0.052054 0.417692 0.286918
  8     -1.115562 -0.404864 -0.172520
  1     2.111457 0.439507 0.223653
  1     1.419736 -1.171713 0.425022
  1     1.361725 -0.380025 -1.148529
  1     -0.118759 0.638465 1.359676
  1     -0.105444 1.548809 -0.277777
  1     -1.936492 0.057223 0.133349
  1     -0.141024 2.431814 -0.713358
*

