 5
 * E = -186.206037 hartree ; s = -1.4000 (bw140)
  C    -0.30016900   +0.03352100   -0.32206701
  O    -0.31653901   -0.05693300   +1.07756600
  O    +0.72452401   -0.07432500   -0.96000901
  H    -0.80228800   +0.75290502   +1.37711799
  H    -1.29762499   +0.17937200   -0.78290800
 5
 * E = -186.205671 hartree ; s = -1.3000 (bw130)
  C    -0.30110301   +0.03010800   -0.32278600
  O    -0.31985601   -0.05856300   +1.07771300
  O    +0.72513700   -0.07143700   -0.95933300
  H    -0.77461500   +0.76959800   +1.37633399
  H    -1.29887700   +0.16666100   -0.78584100
 5
 * E = -186.205311 hartree ; s = -1.2000 (bw120)
  C    -0.30201799   +0.02670600   -0.32350601
  O    -0.32325300   -0.06004000   +1.07784601
  O    +0.72573501   -0.06856000   -0.95864000
  H    -0.74636301   +0.78522401   +1.37554201
  H    -1.30003898   +0.15372400   -0.78878201
 5
 * E = -186.204961 hartree ; s = -1.1000 (bw110)
  C    -0.30291199   +0.02331400   -0.32422500
  O    -0.32672600   -0.06136100   +1.07796201
  O    +0.72632000   -0.06569500   -0.95793400
  H    -0.71757501   +0.79975899   +1.37475100
  H    -1.30111003   +0.14055300   -0.79171099
 5
 * E = -186.204624 hartree ; s = -1.0000 (bw100)
  C    -0.30378001   +0.01993400   -0.32493500
  O    -0.33027200   -0.06252300   +1.07805701
  O    +0.72689200   -0.06284200   -0.95721601
  H    -0.68829500   +0.81318199   +1.37397199
  H    -1.30208399   +0.12714200   -0.79460698
 5
 * E = -186.204304 hartree ; s = -0.9000 (bw90)
  C    -0.30462001   +0.01656300   -0.32563500
  O    -0.33388600   -0.06352000   +1.07812801
  O    +0.72744901   -0.06000300   -0.95648700
  H    -0.65856800   +0.82547400   +1.37321301
  H    -1.30296201   +0.11348300   -0.79745000
 5
 * E = -186.204003 hartree ; s = -0.8000 (bw80)
  C    -0.30543000   +0.01320100   -0.32631900
  O    -0.33756399   -0.06435000   +1.07817100
  O    +0.72799100   -0.05717800   -0.95575200
  H    -0.62844198   +0.83661800   +1.37248200
  H    -1.30374199   +0.09957700   -0.80021701
 5
 * E = -186.203726 hartree ; s = -0.7000 (bw70)
  C    -0.30620700   +0.00984700   -0.32698201
  O    -0.34130100   -0.06501000   +1.07818300
  O    +0.72851600   -0.05436600   -0.95501200
  H    -0.59795902   +0.84659700   +1.37178800
  H    -1.30442102   +0.08542600   -0.80288502
 5
 * E = -186.203475 hartree ; s = -0.6000 (bw60)
  C    -0.30694800   +0.00649900   -0.32761999
  O    -0.34509400   -0.06549800   +1.07816200
  O    +0.72902300   -0.05156800   -0.95427200
  H    -0.56717302   +0.85540202   +1.37113201
  H    -1.30499300   +0.07102900   -0.80543601
 5
 * E = -186.203255 hartree ; s = -0.5000 (bw50)
  C    -0.30765201   +0.00315400   -0.32822900
  O    -0.34893700   -0.06581000   +1.07810300
  O    +0.72951500   -0.04878300   -0.95352801
  H    -0.53612601   +0.86301999   +1.37052001
  H    -1.30545903   +0.05639800   -0.80784900
 5
 * E = -186.203069 hartree ; s = -0.4000 (bw40)
  C    -0.30831700   -0.00018800   -0.32880500
  O    -0.35282400   -0.06594500   +1.07800300
  O    +0.72998900   -0.04601200   -0.95278200
  H    -0.50487000   +0.86944201   +1.36995399
  H    -1.30581599   +0.04153800   -0.81010201
 5
 * E = -186.202918 hartree ; s = -0.3000 (bw30)
  C    -0.30894201   -0.00353000   -0.32934400
  O    -0.35675000   -0.06590400   +1.07786001
  O    +0.73044300   -0.04325400   -0.95203801
  H    -0.47345299   +0.87466499   +1.36943201
  H    -1.30606200   +0.02646300   -0.81217802
 5
 * E = -186.202808 hartree ; s = -0.2000 (bw20)
  C    -0.30952600   -0.00687800   -0.32984301
  O    -0.36071000   -0.06568300   +1.07767301
  O    +0.73087700   -0.04050900   -0.95129801
  H    -0.44192901   +0.87868802   +1.36895600
  H    -1.30619799   +0.01118500   -0.81405799
 5
 * E = -186.202740 hartree ; s = -0.1000 (bw10)
  C    -0.31006700   -0.01022700   -0.33030001
  O    -0.36469400   -0.06528300   +1.07743600
  O    +0.73129201   -0.03777600   -0.95055900
  H    -0.41034599   +0.88150899   +1.36852399
  H    -1.30621802   -0.00427400   -0.81572901
 5
 * E = -186.202717 hartree ; s =  0.0000 (saddle)
  C    -0.31056345   -0.01359222   -0.33070882
  O    -0.36869703   -0.06468674   +1.07714450
  O    +0.73168576   -0.03505079   -0.94982192
  H    -0.37876753   +0.88301774   +1.36812479
  H    -1.30611392   -0.01993214   -0.81715560
 5
 * E = -186.202740 hartree ; s =  0.1000 (fw10)
  C    -0.31102201   -0.01696600   -0.33107400
  O    -0.37270800   -0.06394100   +1.07680601
  O    +0.73205900   -0.03233500   -0.94909001
  H    -0.34721500   +0.88352201   +1.36777601
  H    -1.30591699   -0.03571900   -0.81837499
 5
 * E = -186.202813 hartree ; s =  0.2000 (fw20)
  C    -0.31143600   -0.02034900   -0.33138700
  O    -0.37673101   -0.06300000   +1.07640901
  O    +0.73240801   -0.02963500   -0.94836001
  H    -0.31572200   +0.88272202   +1.36745802
  H    -1.30559402   -0.05162800   -0.81932802
 5
 * E = -186.202937 hartree ; s =  0.3000 (fw30)
  C    -0.31180900   -0.02374800   -0.33164799
  O    -0.38075600   -0.06188300   +1.07595800
  O    +0.73273300   -0.02694500   -0.94763001
  H    -0.28434200   +0.88073699   +1.36717102
  H    -1.30515999   -0.06763400   -0.82002503
 5
 * E = -186.203113 hartree ; s =  0.4000 (fw40)
  C    -0.31214101   -0.02716500   -0.33185801
  O    -0.38477300   -0.06059100   +1.07544901
  O    +0.73303400   -0.02426500   -0.94690101
  H    -0.25312900   +0.87757701   +1.36690602
  H    -1.30461500   -0.08372100   -0.82046201
 5
 * E = -186.203341 hartree ; s =  0.5000 (fw50)
  C    -0.31243400   -0.03060500   -0.33201401
  O    -0.38877500   -0.05912400   +1.07488201
  O    +0.73331101   -0.02159200   -0.94617100
  H    -0.22212600   +0.87325299   +1.36665702
  H    -1.30396301   -0.09986700   -0.82063501
 5
 * E = -186.203621 hartree ; s =  0.6000 (fw60)
  C    -0.31268800   -0.03407000   -0.33211900
  O    -0.39275600   -0.05748400   +1.07425701
  O    +0.73356201   -0.01892200   -0.94544100
  H    -0.19137900   +0.86778001   +1.36641599
  H    -1.30320301   -0.11604900   -0.82054303
 5
 * E = -186.203954 hartree ; s =  0.7000 (fw70)
  C    -0.31290400   -0.03756300   -0.33217100
  O    -0.39670601   -0.05567400   +1.07357401
  O    +0.73378500   -0.01626200   -0.94471100
  H    -0.16092900   +0.86117002   +1.36617799
  H    -1.30234001   -0.13224400   -0.82018701
 5
 * E = -186.204339 hartree ; s =  0.8000 (fw80)
  C    -0.31308600   -0.04108900   -0.33217201
  O    -0.40061800   -0.05369600   +1.07283100
  O    +0.73398301   -0.01360200   -0.94397201
  H    -0.13081700   +0.85344399   +1.36593100
  H    -1.30137702   -0.14842700   -0.81957302
 5
 * E = -186.204773 hartree ; s =  0.9000 (fw90)
  C    -0.31323500   -0.04464900   -0.33212400
  O    -0.40448600   -0.05155200   +1.07202900
  O    +0.73415200   -0.01094200   -0.94322900
  H    -0.10108500   +0.84461701   +1.36566801
  H    -1.30031798   -0.16457800   -0.81870802
 5
 * E = -186.205256 hartree ; s =  1.0000 (fw100)
  C    -0.31335301   -0.04824700   -0.33202701
  O    -0.40830200   -0.04924600   +1.07117000
  O    +0.73429100   -0.00829100   -0.94247700
  H    -0.07176500   +0.83471102   +1.36538202
  H    -1.29916802   -0.18067100   -0.81760102
 5
 * E = -186.205783 hartree ; s =  1.1000 (fw110)
  C    -0.31344100   -0.05188700   -0.33188401
  O    -0.41205800   -0.04678100   +1.07025400
  O    +0.73440101   -0.00563900   -0.94171300
  H    -0.04289800   +0.82374700   +1.36506500
  H    -1.29793003   -0.19668400   -0.81626198
 5
 * E = -186.206353 hartree ; s =  1.2000 (fw120)
  C    -0.31350300   -0.05557000   -0.33169601
  O    -0.41574701   -0.04416000   +1.06928200
  O    +0.73448000   -0.00297900   -0.94093601
  H    -0.01452100   +0.81175001   +1.36470902
  H    -1.29660902   -0.21259700   -0.81470998
 5
 * E = -186.206961 hartree ; s =  1.3000 (fw130)
  C    -0.31354099   -0.05930000   -0.33146800
  O    -0.41936201   -0.04138600   +1.06825701
  O    +0.73452701   -0.00031900   -0.94014100
  H    +0.01333300   +0.79874202   +1.36430602
  H    -1.29520999   -0.22838900   -0.81295900
 5
 * E = -186.207603 hartree ; s =  1.4000 (fw140)
  C    -0.31355700   -0.06308100   -0.33120199
  O    -0.42289600   -0.03846300   +1.06717900
  O    +0.73454301   +0.00234100   -0.93932601
  H    +0.04063200   +0.78474800   +1.36384899
  H    -1.29373801   -0.24404000   -0.81102700
