 5
 * E = -186.206037 hartree ; s = -1.4000 (bw140)
  C    -0.300170   +0.033521   -0.322067
  O    -0.316538   -0.056934   +1.077566
  O    +0.724523   -0.074325   -0.960010
  H    -0.802286   +0.752904   +1.377119
  H    -1.297626   +0.179373   -0.782907
 5
 * E = -186.205671 hartree ; s = -1.3000 (bw130)
  C    -0.301104   +0.030108   -0.322786
  O    -0.319856   -0.058564   +1.077713
  O    +0.725135   -0.071437   -0.959334
  H    -0.774614   +0.769597   +1.376335
  H    -1.298878   +0.166662   -0.785841
 5
 * E = -186.205311 hartree ; s = -1.2000 (bw120)
  C    -0.302018   +0.026706   -0.323506
  O    -0.323253   -0.060041   +1.077846
  O    +0.725734   -0.068560   -0.958641
  H    -0.746362   +0.785223   +1.375542
  H    -1.300039   +0.153725   -0.788782
 5
 * E = -186.204961 hartree ; s = -1.1000 (bw110)
  C    -0.302912   +0.023314   -0.324225
  O    -0.326726   -0.061362   +1.077961
  O    +0.726320   -0.065695   -0.957935
  H    -0.717575   +0.799758   +1.374751
  H    -1.301110   +0.140554   -0.791713
 5
 * E = -186.204624 hartree ; s = -1.0000 (bw100)
  C    -0.303780   +0.019934   -0.324936
  O    -0.330272   -0.062524   +1.078057
  O    +0.726892   -0.062842   -0.957217
  H    -0.688296   +0.813181   +1.373972
  H    -1.302084   +0.127143   -0.794608
 5
 * E = -186.204304 hartree ; s = -0.9000 (bw90)
  C    -0.304620   +0.016563   -0.325635
  O    -0.333886   -0.063521   +1.078127
  O    +0.727449   -0.060003   -0.956488
  H    -0.658569   +0.825472   +1.373213
  H    -1.302962   +0.113483   -0.797450
 5
 * E = -186.204003 hartree ; s = -0.8000 (bw80)
  C    -0.305430   +0.013201   -0.326319
  O    -0.337564   -0.064351   +1.078171
  O    +0.727991   -0.057178   -0.955752
  H    -0.628443   +0.836616   +1.372483
  H    -1.303742   +0.099577   -0.800217
 5
 * E = -186.203726 hartree ; s = -0.7000 (bw70)
  C    -0.306207   +0.009847   -0.326982
  O    -0.341301   -0.065011   +1.078183
  O    +0.728516   -0.054366   -0.955012
  H    -0.597960   +0.846596   +1.371788
  H    -1.304421   +0.085426   -0.802885
 5
 * E = -186.203475 hartree ; s = -0.6000 (bw60)
  C    -0.306948   +0.006499   -0.327620
  O    -0.345094   -0.065498   +1.078161
  O    +0.729023   -0.051568   -0.954272
  H    -0.567173   +0.855401   +1.371132
  H    -1.304993   +0.071029   -0.805436
 5
 * E = -186.203255 hartree ; s = -0.5000 (bw50)
  C    -0.307652   +0.003154   -0.328229
  O    -0.348937   -0.065810   +1.078103
  O    +0.729515   -0.048783   -0.953528
  H    -0.536126   +0.863020   +1.370520
  H    -1.305459   +0.056398   -0.807849
 5
 * E = -186.203069 hartree ; s = -0.4000 (bw40)
  C    -0.308317   -0.000188   -0.328805
  O    -0.352824   -0.065945   +1.078003
  O    +0.729989   -0.046012   -0.952782
  H    -0.504870   +0.869442   +1.369954
  H    -1.305816   +0.041538   -0.810101
 5
 * E = -186.202918 hartree ; s = -0.3000 (bw30)
  C    -0.308942   -0.003530   -0.329344
  O    -0.356750   -0.065904   +1.077860
  O    +0.730443   -0.043254   -0.952038
  H    -0.473453   +0.874665   +1.369432
  H    -1.306062   +0.026463   -0.812178
 5
 * E = -186.202808 hartree ; s = -0.2000 (bw20)
  C    -0.309526   -0.006878   -0.329843
  O    -0.360710   -0.065683   +1.077673
  O    +0.730877   -0.040509   -0.951298
  H    -0.441929   +0.878688   +1.368956
  H    -1.306198   +0.011185   -0.814058
 5
 * E = -186.202740 hartree ; s = -0.1000 (bw10)
  C    -0.310067   -0.010227   -0.330300
  O    -0.364694   -0.065283   +1.077436
  O    +0.731292   -0.037776   -0.950559
  H    -0.410346   +0.881509   +1.368524
  H    -1.306218   -0.004274   -0.815729
 5
 * E = -186.202717 hartree ; s =  0.0000 (saddle)
  C    -0.310563   -0.013592   -0.330709
  O    -0.368697   -0.064687   +1.077144
  O    +0.731686   -0.035051   -0.949822
  H    -0.378768   +0.883018   +1.368125
  H    -1.306114   -0.019932   -0.817156
 5
 * E = -186.202741 hartree ; s =  0.1000 (fw10)
  C    -0.311022   -0.016966   -0.331074
  O    -0.372708   -0.063941   +1.076806
  O    +0.732059   -0.032335   -0.949090
  H    -0.347215   +0.883522   +1.367776
  H    -1.305917   -0.035719   -0.818375
 5
 * E = -186.202813 hartree ; s =  0.2000 (fw20)
  C    -0.311436   -0.020349   -0.331387
  O    -0.376731   -0.063000   +1.076409
  O    +0.732407   -0.029635   -0.948360
  H    -0.315722   +0.882722   +1.367458
  H    -1.305594   -0.051628   -0.819328
 5
 * E = -186.202937 hartree ; s =  0.3000 (fw30)
  C    -0.311809   -0.023748   -0.331648
  O    -0.380756   -0.061883   +1.075958
  O    +0.732733   -0.026945   -0.947630
  H    -0.284342   +0.880737   +1.367172
  H    -1.305160   -0.067634   -0.820025
 5
 * E = -186.203113 hartree ; s =  0.4000 (fw40)
  C    -0.312141   -0.027165   -0.331858
  O    -0.384773   -0.060591   +1.075449
  O    +0.733034   -0.024265   -0.946901
  H    -0.253129   +0.877577   +1.366906
  H    -1.304615   -0.083721   -0.820462
 5
 * E = -186.203341 hartree ; s =  0.5000 (fw50)
  C    -0.312434   -0.030605   -0.332014
  O    -0.388775   -0.059124   +1.074882
  O    +0.733311   -0.021592   -0.946171
  H    -0.222126   +0.873253   +1.366657
  H    -1.303963   -0.099867   -0.820635
 5
 * E = -186.203621 hartree ; s =  0.6000 (fw60)
  C    -0.312688   -0.034070   -0.332119
  O    -0.392756   -0.057484   +1.074257
  O    +0.733562   -0.018922   -0.945441
  H    -0.191379   +0.867780   +1.366416
  H    -1.303203   -0.116049   -0.820543
 5
 * E = -186.203954 hartree ; s =  0.7000 (fw70)
  C    -0.312904   -0.037563   -0.332171
  O    -0.396706   -0.055674   +1.073574
  O    +0.733785   -0.016262   -0.944711
  H    -0.160929   +0.861170   +1.366178
  H    -1.302340   -0.132244   -0.820187
 5
 * E = -186.204339 hartree ; s =  0.8000 (fw80)
  C    -0.313086   -0.041089   -0.332172
  O    -0.400618   -0.053696   +1.072831
  O    +0.733983   -0.013602   -0.943972
  H    -0.130817   +0.853444   +1.365931
  H    -1.301377   -0.148427   -0.819573
 5
 * E = -186.204773 hartree ; s =  0.9000 (fw90)
  C    -0.313235   -0.044649   -0.332124
  O    -0.404486   -0.051552   +1.072029
  O    +0.734152   -0.010942   -0.943229
  H    -0.101085   +0.844617   +1.365668
  H    -1.300318   -0.164578   -0.818708
 5
 * E = -186.205256 hartree ; s =  1.0000 (fw100)
  C    -0.313353   -0.048247   -0.332027
  O    -0.408302   -0.049246   +1.071170
  O    +0.734291   -0.008291   -0.942477
  H    -0.071765   +0.834711   +1.365382
  H    -1.299168   -0.180671   -0.817601
 5
 * E = -186.205783 hartree ; s =  1.1000 (fw110)
  C    -0.313441   -0.051887   -0.331884
  O    -0.412058   -0.046781   +1.070254
  O    +0.734401   -0.005639   -0.941713
  H    -0.042898   +0.823747   +1.365065
  H    -1.297930   -0.196684   -0.816262
 5
 * E = -186.206353 hartree ; s =  1.2000 (fw120)
  C    -0.313503   -0.055570   -0.331696
  O    -0.415747   -0.044160   +1.069282
  O    +0.734480   -0.002979   -0.940936
  H    -0.014521   +0.811750   +1.364709
  H    -1.296609   -0.212597   -0.814710
 5
 * E = -186.206961 hartree ; s =  1.3000 (fw130)
  C    -0.313541   -0.059300   -0.331468
  O    -0.419362   -0.041386   +1.068257
  O    +0.734527   -0.000319   -0.940141
  H    +0.013334   +0.798741   +1.364307
  H    -1.295210   -0.228389   -0.812959
 5
 * E = -186.207603 hartree ; s =  1.4000 (fw140)
  C    -0.313557   -0.063081   -0.331202
  O    -0.422896   -0.038463   +1.067179
  O    +0.734543   +0.002341   -0.939326
  H    +0.040633   +0.784747   +1.363850
  H    -1.293738   -0.244041   -0.811026
