 10
 * E = -152.597190 hartree ; s = -1.7000 (bw170)
  C    -1.264779   -0.023902   -0.234687
  C    +0.109807   -0.555672   +0.230620
  O    +1.183244   +0.364745   -0.011062
  H    -1.490794   +0.914280   +0.255443
  H    -2.044242   -0.738868   +0.008867
  H    -1.272090   +0.139290   -1.308607
  H    +0.085969   -0.725103   +1.310791
  H    +0.304138   -1.523705   -0.248246
  H    +1.180011   +0.482745   -0.995215
  H    -1.789960   +2.563491   +1.200431
 10
 * E = -152.596681 hartree ; s = -1.6000 (bw160)
  C    -1.264883   -0.021638   -0.233164
  C    +0.109250   -0.555008   +0.230722
  O    +1.183340   +0.364667   -0.011093
  H    -1.488739   +0.915714   +0.258421
  H    -2.045291   -0.735526   +0.010349
  H    -1.273075   +0.143473   -1.306745
  H    +0.085880   -0.724827   +1.310842
  H    +0.302553   -1.523004   -0.248611
  H    +1.179630   +0.483207   -0.995180
  H    -1.781602   +2.519491   +1.175544
 10
 * E = -152.596079 hartree ; s = -1.5000 (bw150)
  C    -1.264976   -0.019422   -0.231666
  C    +0.108676   -0.554349   +0.230804
  O    +1.183431   +0.364610   -0.011116
  H    -1.486318   +0.917057   +0.261501
  H    -2.046489   -0.731995   +0.011948
  H    -1.274211   +0.147818   -1.304862
  H    +0.085686   -0.724421   +1.310894
  H    +0.301067   -1.522356   -0.248850
  H    +1.179324   +0.483630   -0.995146
  H    -1.773199   +2.475497   +1.150701
 10
 * E = -152.595370 hartree ; s = -1.4000 (bw140)
  C    -1.265070   -0.017264   -0.230202
  C    +0.108085   -0.553693   +0.230875
  O    +1.183530   +0.364574   -0.011135
  H    -1.483511   +0.918299   +0.264703
  H    -2.047880   -0.728245   +0.013667
  H    -1.275519   +0.152369   -1.302959
  H    +0.085395   -0.723896   +1.310952
  H    +0.299688   -1.521748   -0.248966
  H    +1.179079   +0.484020   -0.995115
  H    -1.764746   +2.431517   +1.125910
 10
 * E = -152.594538 hartree ; s = -1.3000 (bw130)
  C    -1.265181   -0.015173   -0.228781
  C    +0.107480   -0.553034   +0.230945
  O    +1.183641   +0.364559   -0.011146
  H    -1.480332   +0.919439   +0.268020
  H    -2.049506   -0.724254   +0.015499
  H    -1.277009   +0.157153   -1.301034
  H    +0.085034   -0.723282   +1.311023
  H    +0.298418   -1.521160   -0.248982
  H    +1.178879   +0.484382   -0.995085
  H    -1.756239   +2.387554   +1.101175
 10
 * E = -152.593565 hartree ; s = -1.2000 (bw120)
  C    -1.265315   -0.013154   -0.227409
  C    +0.106872   -0.552366   +0.231029
  O    +1.183770   +0.364558   -0.011156
  H    -1.476842   +0.920491   +0.271428
  H    -2.051388   -0.720000   +0.017449
  H    -1.278682   +0.162201   -1.299088
  H    +0.084646   -0.722620   +1.311116
  H    +0.297253   -1.520569   -0.248928
  H    +1.178705   +0.484712   -0.995059
  H    -1.747674   +2.343618   +1.076503
 10
 * E = -152.592433 hartree ; s = -1.1000 (bw110)
  C    -1.265481   -0.011206   -0.226092
  C    +0.106277   -0.551688   +0.231141
  O    +1.183918   +0.364568   -0.011158
  H    -1.473148   +0.921485   +0.274884
  H    -2.053540   -0.715467   +0.019527
  H    -1.280532   +0.167535   -1.297118
  H    +0.084275   -0.721962   +1.311237
  H    +0.296174   -1.519957   -0.248840
  H    +1.178545   +0.485010   -0.995030
  H    -1.739049   +2.299708   +1.051895
 10
 * E = -152.591121 hartree ; s = -1.0000 (bw100)
  C    -1.265681   -0.009322   -0.224836
  C    +0.105716   -0.551000   +0.231285
  O    +1.184080   +0.364588   -0.011158
  H    -1.469412   +0.922478   +0.278326
  H    -2.055950   -0.710649   +0.021757
  H    -1.282540   +0.173177   -1.295126
  H    +0.083964   -0.721353   +1.311387
  H    +0.295163   -1.519321   -0.248747
  H    +1.178386   +0.485271   -0.995005
  H    -1.730361   +2.255820   +1.027350
 10
 * E = -152.589605 hartree ; s = -0.9000 (bw90)
  C    -1.265919   -0.007497   -0.223637
  C    +0.105206   -0.550310   +0.231468
  O    +1.184250   +0.364608   -0.011158
  H    -1.465836   +0.923550   +0.281692
  H    -2.058597   -0.705549   +0.024178
  H    -1.284674   +0.179151   -1.293100
  H    +0.083739   -0.720833   +1.311565
  H    +0.294202   -1.518663   -0.248667
  H    +1.178228   +0.485497   -0.994982
  H    -1.721606   +2.211947   +1.002864
 10
 * E = -152.587861 hartree ; s = -0.8000 (bw80)
  C    -1.266190   -0.005719   -0.222494
  C    +0.104768   -0.549625   +0.231690
  O    +1.184419   +0.364628   -0.011158
  H    -1.462645   +0.924827   +0.284929
  H    -2.061440   -0.700182   +0.026836
  H    -1.286878   +0.185476   -1.291043
  H    +0.083606   -0.720434   +1.311771
  H    +0.293288   -1.518000   -0.248605
  H    +1.178076   +0.485695   -0.994958
  H    -1.712789   +2.168086   +0.978434
 10
 * E = -152.585862 hartree ; s = -0.7000 (bw70)
  C    -1.266489   -0.003986   -0.221404
  C    +0.104420   -0.548959   +0.231945
  O    +1.184576   +0.364640   -0.011158
  H    -1.460082   +0.926563   +0.288056
  H    -2.064433   -0.694589   +0.029784
  H    -1.289086   +0.192154   -1.288961
  H    +0.083554   -0.720174   +1.311995
  H    +0.292428   -1.517362   -0.248560
  H    +1.177936   +0.485873   -0.994936
  H    -1.703915   +2.124235   +0.954053
 10
 * E = -152.583578 hartree ; s = -0.6000 (bw60)
  C    -1.266795   -0.002342   -0.220386
  C    +0.104173   -0.548329   +0.232223
  O    +1.184717   +0.364641   -0.011168
  H    -1.458491   +0.929635   +0.291452
  H    -2.067570   -0.688887   +0.033075
  H    -1.291216   +0.199170   -1.286946
  H    +0.083550   -0.720056   +1.312227
  H    +0.291643   -1.516790   -0.248520
  H    +1.177819   +0.486043   -0.994916
  H    -1.695001   +2.080428   +0.929732
 10
 * E = -152.580958 hartree ; s = -0.5000 (bw50)
  C    -1.267021   -0.001055   -0.219575
  C    +0.104025   -0.547748   +0.232513
  O    +1.184835   +0.364633   -0.011178
  H    -1.458669   +0.937427   +0.296918
  H    -2.070909   -0.683373   +0.036722
  H    -1.293177   +0.206420   -1.285263
  H    +0.083559   -0.720067   +1.312453
  H    +0.290953   -1.516348   -0.248498
  H    +1.177741   +0.486213   -0.994895
  H    -1.686147   +2.037111   +0.905715
 10
 * E = -152.577781 hartree ; s = -0.4000 (bw40)
  C    -1.266998   -0.000851   -0.219358
  C    +0.103960   -0.547248   +0.232779
  O    +1.184920   +0.364621   -0.011188
  H    -1.462047   +0.957083   +0.308399
  H    -2.074277   -0.678699   +0.040399
  H    -1.294799   +0.213246   -1.284254
  H    +0.083553   -0.720160   +1.312643
  H    +0.290377   -1.516111   -0.248529
  H    +1.177706   +0.486374   -0.994883
  H    -1.678025   +1.997504   +0.883777
 10
 * E = -152.573662 hartree ; s = -0.3000 (bw30)
  C    -1.266677   -0.002006   -0.219902
  C    +0.103940   -0.546870   +0.232990
  O    +1.184970   +0.364607   -0.011198
  H    -1.468382   +0.988869   +0.326212
  H    -2.077089   -0.675308   +0.043453
  H    -1.295959   +0.218666   -1.283801
  H    +0.083533   -0.720255   +1.312785
  H    +0.289909   -1.516054   -0.248622
  H    +1.177708   +0.486499   -0.994882
  H    -1.671615   +1.966330   +0.866520
 10
 * E = -152.569048 hartree ; s = -0.2000 (bw20)
  C    -1.266200   -0.003948   -0.220893
  C    +0.103937   -0.546576   +0.233153
  O    +1.185003   +0.364596   -0.011203
  H    -1.476023   +1.026182   +0.346927
  H    -2.079310   -0.672737   +0.045906
  H    -1.296814   +0.222927   -1.283524
  H    +0.083513   -0.720329   +1.312893
  H    +0.289503   -1.516076   -0.248741
  H    +1.177728   +0.486591   -0.994882
  H    -1.666611   +1.942016   +0.853067
 10
 * E = -152.565330 hartree ; s = -0.1000 (bw10)
  C    -1.265643   -0.006301   -0.222125
  C    +0.103937   -0.546328   +0.233294
  O    +1.185027   +0.364586   -0.011203
  H    -1.484181   +1.065729   +0.368824
  H    -2.081201   -0.670516   +0.048044
  H    -1.297525   +0.226619   -1.283264
  H    +0.083493   -0.720384   +1.312990
  H    +0.289129   -1.516125   -0.248862
  H    +1.177750   +0.486666   -0.994891
  H    -1.662447   +1.921803   +0.841887
 10
 * E = -152.563913 hartree ; s =  0.0000 (saddle)
  C    -1.265020   -0.008994   -0.223549
  C    +0.103933   -0.546094   +0.233424
  O    +1.185047   +0.364576   -0.011203
  H    -1.492617   +1.106547   +0.391398
  H    -2.082966   -0.668374   +0.050098
  H    -1.298183   +0.230148   -1.282977
  H    +0.083476   -0.720422   +1.313082
  H    +0.288782   -1.516182   -0.248965
  H    +1.177771   +0.486737   -0.994902
  H    -1.658948   +1.904808   +0.832491
 10
 * E = -152.565257 hartree ; s =  0.1000 (fw10)
  C    -1.264323   -0.012036   -0.225164
  C    +0.103923   -0.545859   +0.233555
  O    +1.185068   +0.364569   -0.011204
  H    -1.501250   +1.148164   +0.414403
  H    -2.084794   -0.666112   +0.052244
  H    -1.298870   +0.233860   -1.282641
  H    +0.083456   -0.720443   +1.313184
  H    +0.288464   -1.516245   -0.249039
  H    +1.177801   +0.486796   -0.994910
  H    -1.656063   +1.890795   +0.824739
 10
 * E = -152.568431 hartree ; s =  0.2000 (fw20)
  C    -1.263470   -0.015805   -0.227173
  C    +0.103913   -0.545607   +0.233698
  O    +1.185096   +0.364569   -0.011209
  H    -1.510046   +1.190610   +0.437861
  H    -2.086943   -0.663462   +0.054765
  H    -1.299669   +0.238221   -1.282250
  H    +0.083414   -0.720439   +1.313305
  H    +0.288226   -1.516317   -0.249028
  H    +1.177830   +0.486861   -0.994917
  H    -1.654536   +1.883285   +0.820585
 10
 * E = -152.571934 hartree ; s =  0.3000 (fw30)
  C    -1.262385   -0.020684   -0.229789
  C    +0.103912   -0.545341   +0.233862
  O    +1.185133   +0.364572   -0.011219
  H    -1.518547   +1.231726   +0.460591
  H    -2.089736   -0.660124   +0.057959
  H    -1.300700   +0.243774   -1.281816
  H    +0.083296   -0.720361   +1.313456
  H    +0.288219   -1.516414   -0.248816
  H    +1.177851   +0.486938   -0.994920
  H    -1.655587   +1.888111   +0.823252
 10
 * E = -152.575214 hartree ; s =  0.4000 (fw40)
  C    -1.261180   -0.026316   -0.232839
  C    +0.103955   -0.545132   +0.234022
  O    +1.185173   +0.364591   -0.011231
  H    -1.525926   +1.267623   +0.480452
  H    -2.093035   -0.656329   +0.061565
  H    -1.301936   +0.250136   -1.281393
  H    +0.083021   -0.720139   +1.313631
  H    +0.288704   -1.516582   -0.248262
  H    +1.177862   +0.487018   -0.994925
  H    -1.659409   +1.906190   +0.833247
 10
 * E = -152.578304 hartree ; s =  0.5000 (fw50)
  C    -1.260023   -0.032042   -0.235983
  C    +0.104061   -0.545040   +0.234154
  O    +1.185213   +0.364630   -0.011244
  H    -1.532508   +1.299863   +0.498313
  H    -2.096425   -0.652491   +0.065099
  H    -1.303251   +0.256526   -1.280983
  H    +0.082552   -0.719737   +1.313812
  H    +0.289800   -1.516890   -0.247334
  H    +1.177859   +0.487097   -0.994932
  H    -1.664439   +1.930019   +0.846427
 10
 * E = -152.581190 hartree ; s =  0.6000 (fw60)
  C    -1.258958   -0.037689   -0.239139
  C    +0.104241   -0.545087   +0.234252
  O    +1.185248   +0.364694   -0.011260
  H    -1.538778   +1.330769   +0.515450
  H    -2.099748   -0.648712   +0.068429
  H    -1.304605   +0.262713   -1.280550
  H    +0.081890   -0.719137   +1.314007
  H    +0.291520   -1.517384   -0.246036
  H    +1.177845   +0.487166   -0.994943
  H    -1.669874   +1.955764   +0.860675
 10
 * E = -152.583857 hartree ; s =  0.7000 (fw70)
  C    -1.257995   -0.043224   -0.242290
  C    +0.104497   -0.545283   +0.234314
  O    +1.185270   +0.364784   -0.011274
  H    -1.544894   +1.361074   +0.532273
  H    -2.102956   -0.645020   +0.071523
  H    -1.305975   +0.268640   -1.280087
  H    +0.081049   -0.718327   +1.314221
  H    +0.293846   -1.518092   -0.244368
  H    +1.177825   +0.487222   -0.994962
  H    -1.675513   +1.982463   +0.875464
 10
 * E = -152.586302 hartree ; s =  0.8000 (fw80)
  C    -1.257131   -0.048632   -0.245435
  C    +0.104834   -0.545632   +0.234340
  O    +1.185277   +0.364903   -0.011289
  H    -1.550910   +1.391033   +0.548914
  H    -2.106027   -0.641445   +0.074371
  H    -1.307345   +0.274275   -1.279613
  H    +0.080048   -0.717303   +1.314455
  H    +0.296736   -1.519033   -0.242333
  H    +1.177806   +0.487260   -0.994989
  H    -1.681288   +2.009802   +0.890616
 10
 * E = -152.588529 hartree ; s =  0.9000 (fw90)
  C    -1.256363   -0.053904   -0.248569
  C    +0.105251   -0.546140   +0.234333
  O    +1.185260   +0.365057   -0.011305
  H    -1.556852   +1.420775   +0.565447
  H    -2.108949   -0.638016   +0.076968
  H    -1.308697   +0.279594   -1.279143
  H    +0.078904   -0.716064   +1.314709
  H    +0.300137   -1.520212   -0.239936
  H    +1.177799   +0.487272   -0.995025
  H    -1.687168   +2.037613   +0.906043
 10
 * E = -152.590547 hartree ; s =  1.0000 (fw100)
  C    -1.255676   -0.059032   -0.251684
  C    +0.105745   -0.546806   +0.234292
  O    +1.185211   +0.365245   -0.011320
  H    -1.562738   +1.450387   +0.581914
  H    -2.111712   -0.634759   +0.079311
  H    -1.310012   +0.284574   -1.278700
  H    +0.077640   -0.714615   +1.314983
  H    +0.303978   -1.521628   -0.237199
  H    +1.177809   +0.487249   -0.995071
  H    -1.693128   +2.065789   +0.921687
 10
 * E = -152.592368 hartree ; s =  1.1000 (fw110)
  C    -1.255056   -0.064016   -0.254783
  C    +0.106315   -0.547628   +0.234221
  O    +1.185125   +0.365468   -0.011339
  H    -1.568576   +1.479925   +0.598345
  H    -2.114298   -0.631698   +0.081397
  H    -1.311266   +0.289195   -1.278310
  H    +0.076287   -0.712980   +1.315272
  H    +0.308176   -1.523273   -0.234152
  H    +1.177849   +0.487180   -0.995135
  H    -1.699159   +2.094253   +0.937507
 10
 * E = -152.594004 hartree ; s =  1.2000 (fw120)
  C    -1.254483   -0.068856   -0.257855
  C    +0.106957   -0.548597   +0.234126
  O    +1.184991   +0.365724   -0.011359
  H    -1.574375   +1.509431   +0.614766
  H    -2.116700   -0.628860   +0.083224
  H    -1.312431   +0.293436   -1.277990
  H    +0.074875   -0.711182   +1.315574
  H    +0.312635   -1.525130   -0.230838
  H    +1.177928   +0.487050   -0.995213
  H    -1.705251   +2.122951   +0.953475
 10
 * E = -152.595470 hartree ; s =  1.3000 (fw130)
  C    -1.253931   -0.073555   -0.260900
  C    +0.107659   -0.549703   +0.234011
  O    +1.184796   +0.366014   -0.011385
  H    -1.580137   +1.538937   +0.631189
  H    -2.118899   -0.626264   +0.084785
  H    -1.313469   +0.297276   -1.277762
  H    +0.073432   -0.709268   +1.315883
  H    +0.317263   -1.527173   -0.227313
  H    +1.178056   +0.486837   -0.995311
  H    -1.711399   +2.151846   +0.969568
 10
 * E = -152.596778 hartree ; s =  1.4000 (fw140)
  C    -1.253381   -0.078117   -0.263912
  C    +0.108411   -0.550926   +0.233884
  O    +1.184535   +0.366335   -0.011419
  H    -1.585866   +1.568470   +0.647629
  H    -2.120883   -0.623928   +0.086078
  H    -1.314343   +0.300697   -1.277639
  H    +0.071995   -0.707285   +1.316193
  H    +0.321971   -1.529365   -0.223641
  H    +1.178240   +0.486521   -0.995434
  H    -1.717605   +2.180911   +0.985773
 10
 * E = -152.597943 hartree ; s =  1.5000 (fw150)
  C    -1.252809   -0.082553   -0.266885
  C    +0.109204   -0.552252   +0.233754
  O    +1.184195   +0.366684   -0.011463
  H    -1.591563   +1.598053   +0.664095
  H    -2.122649   -0.621873   +0.087095
  H    -1.315009   +0.303675   -1.277643
  H    +0.070590   -0.705289   +1.316503
  H    +0.326678   -1.531665   -0.219893
  H    +1.178486   +0.486070   -0.995588
  H    -1.723869   +2.210127   +1.002077
