%pal nprocs 1 end
! hf sto-3g TightSCF
! Opt Freq
* xyz 0 2
  6     1.250065 -0.014859 -0.164022
  6     -0.133997 -0.513419 0.273975
  8     -1.116085 0.457907 -0.117679
  1     1.499482 1.090233 0.458968
  1     1.291333 0.230548 -1.220788
  1     2.046790 -0.697873 0.114810
  1     -0.334109 -1.487415 -0.194272
  1     -0.139573 -0.670536 1.360212
  1     -1.972191 0.072715 0.199679
  1     1.682130 1.880168 0.910510
*

