 5
 * E = -186.208118 hartree ; s = -1.5000 (bw150)
  C    -0.314113   +0.042937   -0.293201
  O    -0.334113   -0.033792   +1.103254
  O    +0.717302   -0.047487   -0.922851
  H    -1.029557   +0.610810   +1.386999
  H    -1.311890   +0.167942   -0.758938
 5
 * E = -186.207660 hartree ; s = -1.4000 (bw140)
  C    -0.314499   +0.040359   -0.293750
  O    -0.336355   -0.035694   +1.103712
  O    +0.717742   -0.045271   -0.922787
  H    -0.995844   +0.646011   +1.387436
  H    -1.312426   +0.158412   -0.761134
 5
 * E = -186.207185 hartree ; s = -1.3000 (bw130)
  C    -0.314891   +0.037792   -0.294325
  O    -0.338708   -0.037462   +1.104168
  O    +0.718182   -0.043065   -0.922694
  H    -0.960305   +0.679318   +1.387842
  H    -1.312901   +0.148706   -0.763425
 5
 * E = -186.206700 hartree ; s = -1.2000 (bw120)
  C    -0.315289   +0.035240   -0.294921
  O    -0.341168   -0.039089   +1.104619
  O    +0.718622   -0.040870   -0.922574
  H    -0.923040   +0.710625   +1.388243
  H    -1.313319   +0.138795   -0.765783
 5
 * E = -186.206212 hartree ; s = -1.1000 (bw110)
  C    -0.315689   +0.032704   -0.295530
  O    -0.343735   -0.040569   +1.105055
  O    +0.719060   -0.038689   -0.922431
  H    -0.884159   +0.739838   +1.388668
  H    -1.313685   +0.128648   -0.768177
 5
 * E = -186.205726 hartree ; s = -1.0000 (bw100)
  C    -0.316083   +0.030188   -0.296140
  O    -0.346398   -0.041896   +1.105471
  O    +0.719492   -0.036524   -0.922266
  H    -0.843778   +0.766861   +1.389132
  H    -1.313996   +0.118244   -0.770574
 5
 * E = -186.205251 hartree ; s = -0.9000 (bw90)
  C    -0.316465   +0.027690   -0.296748
  O    -0.349155   -0.043059   +1.105857
  O    +0.719922   -0.034375   -0.922081
  H    -0.802021   +0.791613   +1.389655
  H    -1.314253   +0.107568   -0.772942
 5
 * E = -186.204795 hartree ; s = -0.8000 (bw80)
  C    -0.316833   +0.025212   -0.297342
  O    -0.351999   -0.044055   +1.106209
  O    +0.720345   -0.032242   -0.921880
  H    -0.759014   +0.814017   +1.390254
  H    -1.314459   +0.096610   -0.775242
 5
 * E = -186.204364 hartree ; s = -0.7000 (bw70)
  C    -0.317182   +0.022752   -0.297916
  O    -0.354924   -0.044876   +1.106519
  O    +0.720762   -0.030126   -0.921664
  H    -0.714895   +0.834006   +1.390937
  H    -1.314615   +0.085364   -0.777442
 5
 * E = -186.203967 hartree ; s = -0.6000 (bw60)
  C    -0.317508   +0.020306   -0.298462
  O    -0.357922   -0.045517   +1.106782
  O    +0.721172   -0.028027   -0.921436
  H    -0.669801   +0.851519   +1.391710
  H    -1.314720   +0.073832   -0.779504
 5
 * E = -186.203612 hartree ; s = -0.5000 (bw50)
  C    -0.317808   +0.017873   -0.298972
  O    -0.360987   -0.045974   +1.106989
  O    +0.721572   -0.025944   -0.921198
  H    -0.623875   +0.866508   +1.392576
  H    -1.314778   +0.062023   -0.781395
 5
 * E = -186.203306 hartree ; s = -0.4000 (bw40)
  C    -0.318079   +0.015448   -0.299440
  O    -0.364109   -0.046244   +1.107140
  O    +0.721962   -0.023877   -0.920951
  H    -0.577264   +0.878933   +1.393532
  H    -1.314789   +0.049949   -0.783082
 5
 * E = -186.203057 hartree ; s = -0.3000 (bw30)
  C    -0.318319   +0.013026   -0.299860
  O    -0.367280   -0.046322   +1.107228
  O    +0.722341   -0.021825   -0.920699
  H    -0.530115   +0.888764   +1.394574
  H    -1.314755   +0.037628   -0.784534
 5
 * E = -186.202871 hartree ; s = -0.2000 (bw20)
  C    -0.318528   +0.010603   -0.300227
  O    -0.370489   -0.046207   +1.107248
  O    +0.722707   -0.019786   -0.920439
  H    -0.482582   +0.895986   +1.395686
  H    -1.314678   +0.025084   -0.785727
 5
 * E = -186.202756 hartree ; s = -0.1000 (bw10)
  C    -0.318705   +0.008173   -0.300537
  O    -0.373728   -0.045896   +1.107197
  O    +0.723062   -0.017759   -0.920170
  H    -0.434836   +0.900591   +1.396857
  H    -1.314559   +0.012339   -0.786642
 5
 * E = -186.202717 hartree ; s =  0.0000 (saddle)
  C    -0.318848   +0.005722   -0.300784
  O    -0.376982   -0.045373   +1.107069
  O    +0.723401   -0.015737   -0.919897
  H    -0.387052   +0.902332   +1.398050
  H    -1.314399   -0.000618   -0.787231
 5
 * E = -186.202757 hartree ; s =  0.1000 (fw10)
  C    -0.318962   +0.003258   -0.300974
  O    -0.380243   -0.044684   +1.106872
  O    +0.723727   -0.013723   -0.919617
  H    -0.339305   +0.901896   +1.399304
  H    -1.314209   -0.013693   -0.787544
 5
 * E = -186.202883 hartree ; s =  0.2000 (fw20)
  C    -0.319044   +0.000778   -0.301096
  O    -0.383505   -0.043788   +1.106594
  O    +0.724035   -0.011724   -0.919329
  H    -0.291695   +0.898614   +1.400555
  H    -1.313982   -0.026841   -0.787508
 5
 * E = -186.203096 hartree ; s =  0.3000 (fw30)
  C    -0.319097   -0.001727   -0.301153
  O    -0.386753   -0.042698   +1.106238
  O    +0.724327   -0.009734   -0.919031
  H    -0.244392   +0.892766   +1.401792
  H    -1.313727   -0.040044   -0.787142
 5
 * E = -186.203397 hartree ; s =  0.4000 (fw40)
  C    -0.319123   -0.004264   -0.301145
  O    -0.389975   -0.041418   +1.105803
  O    +0.724601   -0.007753   -0.918722
  H    -0.197546   +0.884381   +1.402993
  H    -1.313444   -0.053272   -0.786446
 5
 * E = -186.203787 hartree ; s =  0.5000 (fw50)
  C    -0.319126   -0.006839   -0.301074
  O    -0.393161   -0.039950   +1.105289
  O    +0.724855   -0.005773   -0.918399
  H    -0.151297   +0.873499   +1.404132
  H    -1.313143   -0.066490   -0.785426
 5
 * E = -186.204264 hartree ; s =  0.6000 (fw60)
  C    -0.319108   -0.009460   -0.300942
  O    -0.396297   -0.038296   +1.104700
  O    +0.725090   -0.003793   -0.918059
  H    -0.105782   +0.860172   +1.405185
  H    -1.312824   -0.079665   -0.784088
 5
 * E = -186.204825 hartree ; s =  0.7000 (fw70)
  C    -0.319072   -0.012131   -0.300751
  O    -0.399371   -0.036460   +1.104034
  O    +0.725304   -0.001811   -0.917700
  H    -0.061121   +0.844455   +1.406128
  H    -1.312492   -0.092760   -0.782448
 5
 * E = -186.205465 hartree ; s =  0.8000 (fw80)
  C    -0.319024   -0.014858   -0.300506
  O    -0.402373   -0.034447   +1.103295
  O    +0.725496   +0.000178   -0.917315
  H    -0.017436   +0.826410   +1.406938
  H    -1.312151   -0.105739   -0.780525
 5
 * E = -186.206178 hartree ; s =  0.9000 (fw90)
  C    -0.318967   -0.017648   -0.300211
  O    -0.405290   -0.032259   +1.102480
  O    +0.725666   +0.002172   -0.916904
  H    +0.025160   +0.806104   +1.407594
  H    -1.311809   -0.118568   -0.778343
 5
 * E = -186.206956 hartree ; s =  1.0000 (fw100)
  C    -0.318907   -0.020509   -0.299869
  O    -0.408112   -0.029903   +1.101599
  O    +0.725812   +0.004175   -0.916459
  H    +0.066555   +0.783614   +1.408073
  H    -1.311469   -0.131213   -0.775927
 5
 * E = -186.207790 hartree ; s =  1.1000 (fw110)
  C    -0.318847   -0.023444   -0.299489
  O    -0.410823   -0.027382   +1.100651
  O    +0.725932   +0.006189   -0.915978
  H    +0.106646   +0.759016   +1.408361
  H    -1.311136   -0.143640   -0.773312
 5
 * E = -186.208669 hartree ; s =  1.2000 (fw120)
  C    -0.318797   -0.026462   -0.299078
  O    -0.413414   -0.024702   +1.099639
  O    +0.726026   +0.008216   -0.915455
  H    +0.145331   +0.732397   +1.408444
  H    -1.310819   -0.155816   -0.770533
 5
 * E = -186.209579 hartree ; s =  1.3000 (fw130)
  C    -0.318760   -0.029568   -0.298644
  O    -0.415872   -0.021866   +1.098567
  O    +0.726092   +0.010260   -0.914884
  H    +0.182513   +0.703843   +1.408308
  H    -1.310520   -0.167710   -0.767632
 5
 * E = -186.210509 hartree ; s =  1.4000 (fw140)
  C    -0.318741   -0.032770   -0.298194
  O    -0.418184   -0.018882   +1.097437
  O    +0.726130   +0.012321   -0.914258
  H    +0.218102   +0.673450   +1.407945
  H    -1.310245   -0.179292   -0.764655
