 5
 * E = -186.208118 hartree ; s = -1.5000 (bw150)
  C    -0.31411301   +0.04293800   -0.29320000
  O    -0.33411400   -0.03379300   +1.10325401
  O    +0.71730200   -0.04748700   -0.92285001
  H    -1.02955499   +0.61081202   +1.38699999
  H    -1.31188998   +0.16794600   -0.75893701
 5
 * E = -186.207660 hartree ; s = -1.4000 (bw140)
  C    -0.31449900   +0.04036000   -0.29374900
  O    -0.33635600   -0.03569500   +1.10371200
  O    +0.71774200   -0.04527100   -0.92278601
  H    -0.99584400   +0.64601101   +1.38743603
  H    -1.31242601   +0.15841600   -0.76113399
 5
 * E = -186.207185 hartree ; s = -1.3000 (bw130)
  C    -0.31489100   +0.03779300   -0.29432500
  O    -0.33870900   -0.03746300   +1.10416800
  O    +0.71818200   -0.04306500   -0.92269401
  H    -0.96030601   +0.67931702   +1.38784201
  H    -1.31289999   +0.14871000   -0.76342500
 5
 * E = -186.206700 hartree ; s = -1.2000 (bw120)
  C    -0.31528900   +0.03524100   -0.29492100
  O    -0.34116901   -0.03909000   +1.10461900
  O    +0.71862200   -0.04087000   -0.92257401
  H    -0.92304003   +0.71062498   +1.38824399
  H    -1.31331900   +0.13879800   -0.76578302
 5
 * E = -186.206212 hartree ; s = -1.1000 (bw110)
  C    -0.31568900   +0.03270500   -0.29553000
  O    -0.34373500   -0.04056900   +1.10505501
  O    +0.71906100   -0.03868900   -0.92243100
  H    -0.88415800   +0.73983902   +1.38866801
  H    -1.31368403   +0.12865100   -0.76817698
 5
 * E = -186.205726 hartree ; s = -1.0000 (bw100)
  C    -0.31608100   +0.03018900   -0.29613900
  O    -0.34639800   -0.04189600   +1.10547100
  O    +0.71949300   -0.03652400   -0.92226601
  H    -0.84377700   +0.76686098   +1.38913298
  H    -1.31399403   +0.11824700   -0.77057400
 5
 * E = -186.205251 hartree ; s = -0.9000 (bw90)
  C    -0.31646400   +0.02769100   -0.29674700
  O    -0.34915500   -0.04305900   +1.10585701
  O    +0.71992301   -0.03437500   -0.92208100
  H    -0.80201901   +0.79161400   +1.38965599
  H    -1.31425200   +0.10757100   -0.77294203
 5
 * E = -186.204795 hartree ; s = -0.8000 (bw80)
  C    -0.31683299   +0.02521300   -0.29734200
  O    -0.35199900   -0.04405500   +1.10620901
  O    +0.72034500   -0.03224200   -0.92188000
  H    -0.75901302   +0.81401703   +1.39025501
  H    -1.31445900   +0.09661200   -0.77524201
 5
 * E = -186.204364 hartree ; s = -0.7000 (bw70)
  C    -0.31718201   +0.02275300   -0.29791600
  O    -0.35492401   -0.04487600   +1.10651901
  O    +0.72076201   -0.03012600   -0.92166401
  H    -0.71489401   +0.83400601   +1.39093799
  H    -1.31461503   +0.08536600   -0.77744199
 5
 * E = -186.203967 hartree ; s = -0.6000 (bw60)
  C    -0.31750800   +0.02030700   -0.29846199
  O    -0.35792201   -0.04551700   +1.10678200
  O    +0.72117200   -0.02802700   -0.92143600
  H    -0.66980100   +0.85151901   +1.39171101
  H    -1.31472003   +0.07383400   -0.77950403
 5
 * E = -186.203612 hartree ; s = -0.5000 (bw50)
  C    -0.31780800   +0.01787400   -0.29897200
  O    -0.36098700   -0.04597400   +1.10698901
  O    +0.72157200   -0.02594400   -0.92119800
  H    -0.62387503   +0.86650800   +1.39257602
  H    -1.31477801   +0.06202500   -0.78139501
 5
 * E = -186.203306 hartree ; s = -0.4000 (bw40)
  C    -0.31807900   +0.01544900   -0.29944000
  O    -0.36410901   -0.04624400   +1.10714000
  O    +0.72196200   -0.02387700   -0.92095100
  H    -0.57726301   +0.87893198   +1.39353300
  H    -1.31478903   +0.04995100   -0.78308201
 5
 * E = -186.203057 hartree ; s = -0.3000 (bw30)
  C    -0.31831900   +0.01302700   -0.29986000
  O    -0.36728000   -0.04632200   +1.10722801
  O    +0.72234100   -0.02182500   -0.92069901
  H    -0.53011402   +0.88876402   +1.39457401
  H    -1.31475498   +0.03763000   -0.78453401
 5
 * E = -186.202871 hartree ; s = -0.2000 (bw20)
  C    -0.31852801   +0.01060400   -0.30022700
  O    -0.37048900   -0.04620700   +1.10724800
  O    +0.72270700   -0.01978600   -0.92043901
  H    -0.48258200   +0.89598602   +1.39568702
  H    -1.31467802   +0.02508500   -0.78572698
 5
 * E = -186.202756 hartree ; s = -0.1000 (bw10)
  C    -0.31870500   +0.00817300   -0.30053700
  O    -0.37372800   -0.04589600   +1.10719701
  O    +0.72306200   -0.01775900   -0.92017001
  H    -0.43483600   +0.90059098   +1.39685601
  H    -1.31455900   +0.01234100   -0.78664201
 5
 * E = -186.202717 hartree ; s =  0.0000 (saddle)
  C    -0.31884822   +0.00572201   -0.30078386
  O    -0.37698181   -0.04537251   +1.10706947
  O    +0.72340098   -0.01573656   -0.91989695
  H    -0.38705231   +0.90233195   +1.39804978
  H    -1.31439870   -0.00061791   -0.78723064
 5
 * E = -186.202757 hartree ; s =  0.1000 (fw10)
  C    -0.31896200   +0.00325800   -0.30097400
  O    -0.38024300   -0.04468400   +1.10687200
  O    +0.72372699   -0.01372300   -0.91961700
  H    -0.33930500   +0.90189602   +1.39930400
  H    -1.31420899   -0.01369300   -0.78754401
 5
 * E = -186.202883 hartree ; s =  0.2000 (fw20)
  C    -0.31904400   +0.00077800   -0.30109599
  O    -0.38350500   -0.04378800   +1.10659401
  O    +0.72403500   -0.01172400   -0.91932900
  H    -0.29169500   +0.89861402   +1.40055501
  H    -1.31398201   -0.02684100   -0.78750801
 5
 * E = -186.203096 hartree ; s =  0.3000 (fw30)
  C    -0.31909701   -0.00172700   -0.30115300
  O    -0.38675301   -0.04269800   +1.10623801
  O    +0.72432700   -0.00973400   -0.91903100
  H    -0.24439200   +0.89276601   +1.40179200
  H    -1.31372699   -0.04004400   -0.78714198
 5
 * E = -186.203397 hartree ; s =  0.4000 (fw40)
  C    -0.31912301   -0.00426400   -0.30114401
  O    -0.38997500   -0.04141800   +1.10580400
  O    +0.72460100   -0.00775300   -0.91872201
  H    -0.19754600   +0.88438102   +1.40299399
  H    -1.31344498   -0.05327200   -0.78644603
 5
 * E = -186.203787 hartree ; s =  0.5000 (fw50)
  C    -0.31912499   -0.00683900   -0.30107300
  O    -0.39316100   -0.03995000   +1.10529001
  O    +0.72485600   -0.00577300   -0.91839800
  H    -0.15129700   +0.87349902   +1.40413299
  H    -1.31314199   -0.06649000   -0.78542500
 5
 * E = -186.204264 hartree ; s =  0.6000 (fw60)
  C    -0.31910700   -0.00946000   -0.30094100
  O    -0.39629701   -0.03829600   +1.10470101
  O    +0.72509101   -0.00379300   -0.91805801
  H    -0.10578200   +0.86017198   +1.40518602
  H    -1.31282298   -0.07966400   -0.78408801
 5
 * E = -186.204825 hartree ; s =  0.7000 (fw70)
  C    -0.31907099   -0.01213100   -0.30075001
  O    -0.39937100   -0.03646000   +1.10403500
  O    +0.72530500   -0.00181100   -0.91769900
  H    -0.06112100   +0.84445498   +1.40612903
  H    -1.31249100   -0.09275900   -0.78244699
 5
 * E = -186.205465 hartree ; s =  0.8000 (fw80)
  C    -0.31902300   -0.01485800   -0.30050500
  O    -0.40237301   -0.03444700   +1.10329601
  O    +0.72549801   +0.00017800   -0.91731401
  H    -0.01743600   +0.82641002   +1.40693900
  H    -1.31215001   -0.10573900   -0.78052400
 5
 * E = -186.206178 hartree ; s =  0.9000 (fw90)
  C    -0.31896600   -0.01764800   -0.30021000
  O    -0.40529000   -0.03225900   +1.10248101
  O    +0.72566700   +0.00217200   -0.91690300
  H    +0.02516000   +0.80610397   +1.40759500
  H    -1.31180801   -0.11856800   -0.77834199
 5
 * E = -186.206957 hartree ; s =  1.0000 (fw100)
  C    -0.31890600   -0.02050900   -0.29986800
  O    -0.40811200   -0.02990300   +1.10160000
  O    +0.72581300   +0.00417500   -0.91645800
  H    +0.06655500   +0.78361403   +1.40807400
  H    -1.31146802   -0.13121200   -0.77592600
 5
 * E = -186.207790 hartree ; s =  1.1000 (fw110)
  C    -0.31884700   -0.02344400   -0.29948799
  O    -0.41082300   -0.02738200   +1.10065200
  O    +0.72593301   +0.00618900   -0.91597700
  H    +0.10664600   +0.75901602   +1.40836201
  H    -1.31113499   -0.14363900   -0.77331101
 5
 * E = -186.208669 hartree ; s =  1.2000 (fw120)
  C    -0.31879700   -0.02646200   -0.29907701
  O    -0.41341401   -0.02470200   +1.09964000
  O    +0.72602701   +0.00821600   -0.91545301
  H    +0.14533100   +0.73239699   +1.40844498
  H    -1.31081798   -0.15581600   -0.77053299
 5
 * E = -186.209579 hartree ; s =  1.3000 (fw130)
  C    -0.31875900   -0.02956800   -0.29864300
  O    -0.41587200   -0.02186600   +1.09856801
  O    +0.72609300   +0.01026000   -0.91488301
  H    +0.18251300   +0.70384302   +1.40830899
  H    -1.31051900   -0.16771000   -0.76763199
 5
 * E = -186.210509 hartree ; s =  1.4000 (fw140)
  C    -0.31874001   -0.03277000   -0.29819300
  O    -0.41818400   -0.01888200   +1.09743801
  O    +0.72613101   +0.01232100   -0.91425701
  H    +0.21810100   +0.67344998   +1.40794701
  H    -1.31024400   -0.17929200   -0.76465398
