 5
 * E = -186.208118 hartree ; s = -1.5000 (bw150)
  C    -0.31411301   +0.04293700   -0.29320101
  O    -0.33411300   -0.03379200   +1.10325400
  O    +0.71730200   -0.04748700   -0.92285100
  H    -1.02955699   +0.61081002   +1.38699899
  H    -1.31188998   +0.16794200   -0.75893801
 5
 * E = -186.207660 hartree ; s = -1.4000 (bw140)
  C    -0.31449900   +0.04035900   -0.29375000
  O    -0.33635500   -0.03569400   +1.10371200
  O    +0.71774200   -0.04527100   -0.92278700
  H    -0.99584400   +0.64601101   +1.38743597
  H    -1.31242601   +0.15841200   -0.76113399
 5
 * E = -186.207185 hartree ; s = -1.3000 (bw130)
  C    -0.31489100   +0.03779200   -0.29432500
  O    -0.33870801   -0.03746200   +1.10416800
  O    +0.71818200   -0.04306500   -0.92269401
  H    -0.96030501   +0.67931802   +1.38784201
  H    -1.31290100   +0.14870600   -0.76342500
 5
 * E = -186.206700 hartree ; s = -1.2000 (bw120)
  C    -0.31528900   +0.03524000   -0.29492100
  O    -0.34116800   -0.03908900   +1.10461900
  O    +0.71862200   -0.04087000   -0.92257400
  H    -0.92303997   +0.71062498   +1.38824299
  H    -1.31331900   +0.13879500   -0.76578302
 5
 * E = -186.206212 hartree ; s = -1.1000 (bw110)
  C    -0.31568900   +0.03270400   -0.29553000
  O    -0.34373500   -0.04056900   +1.10505501
  O    +0.71905999   -0.03868900   -0.92243100
  H    -0.88415900   +0.73983802   +1.38866801
  H    -1.31368498   +0.12864800   -0.76817698
 5
 * E = -186.205726 hartree ; s = -1.0000 (bw100)
  C    -0.31608300   +0.03018800   -0.29614001
  O    -0.34639800   -0.04189600   +1.10547100
  O    +0.71949200   -0.03652400   -0.92226601
  H    -0.84377800   +0.76686098   +1.38913198
  H    -1.31399598   +0.11824400   -0.77057400
 5
 * E = -186.205251 hartree ; s = -0.9000 (bw90)
  C    -0.31646499   +0.02769000   -0.29674799
  O    -0.34915500   -0.04305900   +1.10585700
  O    +0.71992200   -0.03437500   -0.92208100
  H    -0.80202102   +0.79161300   +1.38965499
  H    -1.31425300   +0.10756800   -0.77294198
 5
 * E = -186.204795 hartree ; s = -0.8000 (bw80)
  C    -0.31683299   +0.02521200   -0.29734200
  O    -0.35199900   -0.04405500   +1.10620899
  O    +0.72034500   -0.03224200   -0.92188000
  H    -0.75901402   +0.81401698   +1.39025400
  H    -1.31445900   +0.09661000   -0.77524201
 5
 * E = -186.204364 hartree ; s = -0.7000 (bw70)
  C    -0.31718201   +0.02275200   -0.29791600
  O    -0.35492399   -0.04487600   +1.10651900
  O    +0.72076201   -0.03012600   -0.92166400
  H    -0.71489501   +0.83400601   +1.39093699
  H    -1.31461498   +0.08536400   -0.77744199
 5
 * E = -186.203967 hartree ; s = -0.6000 (bw60)
  C    -0.31750800   +0.02030600   -0.29846199
  O    -0.35792199   -0.04551700   +1.10678200
  O    +0.72117200   -0.02802700   -0.92143600
  H    -0.66980100   +0.85151901   +1.39171001
  H    -1.31471998   +0.07383200   -0.77950397
 5
 * E = -186.203612 hartree ; s = -0.5000 (bw50)
  C    -0.31780800   +0.01787300   -0.29897200
  O    -0.36098700   -0.04597400   +1.10698901
  O    +0.72157200   -0.02594400   -0.92119800
  H    -0.62387503   +0.86650800   +1.39257602
  H    -1.31477801   +0.06202300   -0.78139501
 5
 * E = -186.203306 hartree ; s = -0.4000 (bw40)
  C    -0.31807900   +0.01544800   -0.29944000
  O    -0.36410899   -0.04624400   +1.10714000
  O    +0.72196200   -0.02387700   -0.92095100
  H    -0.57726401   +0.87893299   +1.39353200
  H    -1.31478898   +0.04994900   -0.78308201
 5
 * E = -186.203057 hartree ; s = -0.3000 (bw30)
  C    -0.31831900   +0.01302600   -0.29986000
  O    -0.36728000   -0.04632200   +1.10722799
  O    +0.72234100   -0.02182500   -0.92069900
  H    -0.53011502   +0.88876402   +1.39457401
  H    -1.31475498   +0.03762800   -0.78453401
 5
 * E = -186.202871 hartree ; s = -0.2000 (bw20)
  C    -0.31852801   +0.01060300   -0.30022700
  O    -0.37048900   -0.04620700   +1.10724800
  O    +0.72270700   -0.01978600   -0.92043900
  H    -0.48258200   +0.89598602   +1.39568602
  H    -1.31467802   +0.02508400   -0.78572698
 5
 * E = -186.202756 hartree ; s = -0.1000 (bw10)
  C    -0.31870500   +0.00817300   -0.30053700
  O    -0.37372800   -0.04589600   +1.10719701
  O    +0.72306200   -0.01775900   -0.92017000
  H    -0.43483600   +0.90059098   +1.39685701
  H    -1.31455900   +0.01233900   -0.78664201
 5
 * E = -186.202717 hartree ; s =  0.0000 (saddle)
  C    -0.31884822   +0.00572201   -0.30078386
  O    -0.37698181   -0.04537251   +1.10706947
  O    +0.72340098   -0.01573656   -0.91989695
  H    -0.38705231   +0.90233195   +1.39804978
  H    -1.31439870   -0.00061791   -0.78723064
 5
 * E = -186.202757 hartree ; s =  0.1000 (fw10)
  C    -0.31896200   +0.00325800   -0.30097400
  O    -0.38024300   -0.04468400   +1.10687200
  O    +0.72372699   -0.01372300   -0.91961700
  H    -0.33930500   +0.90189602   +1.39930400
  H    -1.31420899   -0.01369300   -0.78754401
 5
 * E = -186.202883 hartree ; s =  0.2000 (fw20)
  C    -0.31904400   +0.00077800   -0.30109599
  O    -0.38350500   -0.04378800   +1.10659401
  O    +0.72403500   -0.01172400   -0.91932900
  H    -0.29169500   +0.89861402   +1.40055501
  H    -1.31398201   -0.02684100   -0.78750801
 5
 * E = -186.203096 hartree ; s =  0.3000 (fw30)
  C    -0.31909699   -0.00172700   -0.30115300
  O    -0.38675299   -0.04269800   +1.10623800
  O    +0.72432700   -0.00973400   -0.91903100
  H    -0.24439200   +0.89276601   +1.40179200
  H    -1.31372699   -0.04004400   -0.78714198
 5
 * E = -186.203397 hartree ; s =  0.4000 (fw40)
  C    -0.31912299   -0.00426400   -0.30114500
  O    -0.38997500   -0.04141800   +1.10580300
  O    +0.72460100   -0.00775300   -0.91872201
  H    -0.19754600   +0.88438102   +1.40299299
  H    -1.31344398   -0.05327200   -0.78644603
 5
 * E = -186.203787 hartree ; s =  0.5000 (fw50)
  C    -0.31912600   -0.00683900   -0.30107400
  O    -0.39316100   -0.03995000   +1.10528901
  O    +0.72485500   -0.00577300   -0.91839900
  H    -0.15129700   +0.87349902   +1.40413199
  H    -1.31314300   -0.06649000   -0.78542600
 5
 * E = -186.204264 hartree ; s =  0.6000 (fw60)
  C    -0.31910801   -0.00946000   -0.30094200
  O    -0.39629701   -0.03829600   +1.10470000
  O    +0.72509000   -0.00379300   -0.91805900
  H    -0.10578200   +0.86017198   +1.40518502
  H    -1.31282398   -0.07966500   -0.78408801
 5
 * E = -186.204825 hartree ; s =  0.7000 (fw70)
  C    -0.31907200   -0.01213100   -0.30075100
  O    -0.39937100   -0.03646000   +1.10403399
  O    +0.72530399   -0.00181100   -0.91770000
  H    -0.06112100   +0.84445498   +1.40612798
  H    -1.31249200   -0.09276000   -0.78244799
 5
 * E = -186.205465 hartree ; s =  0.8000 (fw80)
  C    -0.31902400   -0.01485800   -0.30050600
  O    -0.40237301   -0.03444700   +1.10329500
  O    +0.72549600   +0.00017800   -0.91731500
  H    -0.01743600   +0.82641002   +1.40693800
  H    -1.31215101   -0.10573900   -0.78052500
 5
 * E = -186.206178 hartree ; s =  0.9000 (fw90)
  C    -0.31896699   -0.01764800   -0.30021099
  O    -0.40529000   -0.03225900   +1.10248000
  O    +0.72566600   +0.00217200   -0.91690401
  H    +0.02516000   +0.80610397   +1.40759400
  H    -1.31180902   -0.11856800   -0.77834300
 5
 * E = -186.206956 hartree ; s =  1.0000 (fw100)
  C    -0.31890701   -0.02050900   -0.29986899
  O    -0.40811200   -0.02990300   +1.10159899
  O    +0.72581201   +0.00417500   -0.91645900
  H    +0.06655500   +0.78361403   +1.40807299
  H    -1.31146902   -0.13121300   -0.77592700
 5
 * E = -186.207790 hartree ; s =  1.1000 (fw110)
  C    -0.31884700   -0.02344400   -0.29948900
  O    -0.41082300   -0.02738200   +1.10065099
  O    +0.72593200   +0.00618900   -0.91597800
  H    +0.10664600   +0.75901602   +1.40836101
  H    -1.31113599   -0.14364000   -0.77331201
 5
 * E = -186.208669 hartree ; s =  1.2000 (fw120)
  C    -0.31879700   -0.02646200   -0.29907800
  O    -0.41341399   -0.02470200   +1.09963899
  O    +0.72602600   +0.00821600   -0.91545499
  H    +0.14533100   +0.73239699   +1.40844398
  H    -1.31081898   -0.15581600   -0.77053299
 5
 * E = -186.209579 hartree ; s =  1.3000 (fw130)
  C    -0.31876000   -0.02956800   -0.29864399
  O    -0.41587200   -0.02186600   +1.09856700
  O    +0.72609200   +0.01026000   -0.91488400
  H    +0.18251300   +0.70384302   +1.40830798
  H    -1.31052000   -0.16771000   -0.76763199
 5
 * E = -186.210509 hartree ; s =  1.4000 (fw140)
  C    -0.31874100   -0.03277000   -0.29819401
  O    -0.41818400   -0.01888200   +1.09743700
  O    +0.72613000   +0.01232100   -0.91425800
  H    +0.21810200   +0.67344998   +1.40794501
  H    -1.31024500   -0.17929200   -0.76465498
