 10
 * E = -152.596681 hartree ; s = -1.6000 (bw160)
  C    -1.26488276   -0.02163806   -0.23316395
  C    +0.10925022   -0.55500794   +0.23072180
  O    +1.18334026   +0.36466713   -0.01109314
  H    -1.48873900   +0.91571418   +0.25842105
  H    -2.04529109   -0.73552618   +0.01034912
  H    -1.27307495   +0.14347317   -1.30674493
  H    +0.08588017   -0.72482725   +1.31084181
  H    +0.30255284   -1.52300378   -0.24861116
  H    +1.17963022   +0.48320706   -0.99518020
  H    -1.78160208   +2.51949102   +1.17554388
 10
 * E = -152.596079 hartree ; s = -1.5000 (bw150)
  C    -1.26497589   -0.01942186   -0.23166584
  C    +0.10867607   -0.55434911   +0.23080381
  O    +1.18343075   +0.36460998   -0.01111590
  H    -1.48631805   +0.91705723   +0.26150085
  H    -2.04648912   -0.73199496   +0.01194776
  H    -1.27421110   +0.14781824   -1.30486212
  H    +0.08568596   -0.72442084   +1.31089420
  H    +0.30106691   -1.52235606   -0.24884982
  H    +1.17932380   +0.48362987   -0.99514578
  H    -1.77319875   +2.47549684   +1.15070114
 10
 * E = -152.595370 hartree ; s = -1.4000 (bw140)
  C    -1.26507009   -0.01726388   -0.23020214
  C    +0.10808497   -0.55369293   +0.23087526
  O    +1.18353023   +0.36457399   -0.01113495
  H    -1.48351124   +0.91829922   +0.26470291
  H    -2.04787982   -0.72824520   +0.01366706
  H    -1.27551920   +0.15236917   -1.30295916
  H    +0.08539491   -0.72389589   +1.31095187
  H    +0.29968787   -1.52174802   -0.24896624
  H    +1.17907880   +0.48401987   -0.99511510
  H    -1.76474619   +2.43151688   +1.12591027
 10
 * E = -152.594538 hartree ; s = -1.3000 (bw130)
  C    -1.26518122   -0.01517310   -0.22878076
  C    +0.10748012   -0.55303411   +0.23094510
  O    +1.18364084   +0.36455917   -0.01114606
  H    -1.48033198   +0.91943907   +0.26801979
  H    -2.04950598   -0.72425417   +0.01549907
  H    -1.27700884   +0.15715293   -1.30103402
  H    +0.08503402   -0.72328206   +1.31102277
  H    +0.29841785   -1.52116013   -0.24898211
  H    +1.17887875   +0.48438183   -0.99508495
  H    -1.75623912   +2.38755391   +1.10117490
 10
 * E = -152.593565 hartree ; s = -1.2000 (bw120)
  C    -1.26531510   -0.01315376   -0.22740914
  C    +0.10687210   -0.55236575   +0.23102924
  O    +1.18376995   +0.36455811   -0.01115611
  H    -1.47684203   +0.92049104   +0.27142822
  H    -2.05138827   -0.72000011   +0.01744909
  H    -1.27868212   +0.16220075   -1.29908827
  H    +0.08464613   -0.72262005   +1.31111591
  H    +0.29725312   -1.52056902   -0.24892814
  H    +1.17870517   +0.48471204   -0.99505901
  H    -1.74767386   +2.34361791   +1.07650310
 10
 * E = -152.592433 hartree ; s = -1.1000 (bw110)
  C    -1.26548126   -0.01120586   -0.22609202
  C    +0.10627678   -0.55168787   +0.23114090
  O    +1.18391812   +0.36456817   -0.01115823
  H    -1.47314788   +0.92148487   +0.27488375
  H    -2.05353992   -0.71546715   +0.01952717
  H    -1.28053210   +0.16753486   -1.29711811
  H    +0.08427518   -0.72196178   +1.31123709
  H    +0.29617413   -1.51995677   -0.24883976
  H    +1.17854488   +0.48500996   -0.99502992
  H    -1.73904883   +2.29970786   +1.05189476
 10
 * E = -152.591121 hartree ; s = -1.0000 (bw100)
  C    -1.26568076   -0.00932199   -0.22483576
  C    +0.10571585   -0.55099995   +0.23128484
  O    +1.18408004   +0.36458775   -0.01115823
  H    -1.46941187   +0.92247812   +0.27832605
  H    -2.05594980   -0.71064902   +0.02175712
  H    -1.28253979   +0.17317695   -1.29512576
  H    +0.08396402   -0.72135322   +1.31138685
  H    +0.29516288   -1.51932122   -0.24874716
  H    +1.17838611   +0.48527085   -0.99500504
  H    -1.73036080   +2.25581999   +1.02734995
 10
 * E = -152.589605 hartree ; s = -0.9000 (bw90)
  C    -1.26591888   -0.00749685   -0.22363717
  C    +0.10520625   -0.55030990   +0.23146794
  O    +1.18424991   +0.36460786   -0.01115823
  H    -1.46583621   +0.92355022   +0.28169214
  H    -2.05859725   -0.70554877   +0.02417811
  H    -1.28467399   +0.17915083   -1.29310009
  H    +0.08373912   -0.72083301   +1.31156517
  H    +0.29420189   -1.51866290   -0.24866725
  H    +1.17822787   +0.48549681   -0.99498174
  H    -1.72160610   +2.21194699   +1.00286385
 10
 * E = -152.587861 hartree ; s = -0.8000 (bw80)
  C    -1.26618983   -0.00571882   -0.22249414
  C    +0.10476809   -0.54962515   +0.23169019
  O    +1.18441925   +0.36462797   -0.01115823
  H    -1.46264477   +0.92482712   +0.28492912
  H    -2.06144000   -0.70018186   +0.02683616
  H    -1.28687803   +0.18547609   -1.29104317
  H    +0.08360577   -0.72043403   +1.31177106
  H    +0.29328800   -1.51799984   -0.24860481
  H    +1.17807601   +0.48569525   -0.99495791
  H    -1.71278893   +2.16808612   +0.97843384
 10
 * E = -152.585862 hartree ; s = -0.7000 (bw70)
  C    -1.26648882   -0.00398576   -0.22140405
  C    +0.10441989   -0.54895892   +0.23194526
  O    +1.18457588   +0.36464013   -0.01115823
  H    -1.46008197   +0.92656281   +0.28805603
  H    -2.06443304   -0.69458902   +0.02978421
  H    -1.28908629   +0.19215377   -1.28896084
  H    +0.08355391   -0.72017422   +1.31199488
  H    +0.29242809   -1.51736218   -0.24855983
  H    +1.17793579   +0.48587305   -0.99493625
  H    -1.70391514   +2.12423478   +0.95405307
 10
 * E = -152.583578 hartree ; s = -0.6000 (bw60)
  C    -1.26679521   -0.00234214   -0.22038590
  C    +0.10417277   -0.54832920   +0.23222307
  O    +1.18471718   +0.36464119   -0.01116776
  H    -1.45849123   +0.92963523   +0.29145176
  H    -2.06756998   -0.68888713   +0.03307516
  H    -1.29121622   +0.19917013   -1.28694577
  H    +0.08355020   -0.72005619   +1.31222718
  H    +0.29164279   -1.51679016   -0.24852014
  H    +1.17781882   +0.48604292   -0.99491611
  H    -1.69500119   +2.08042793   +0.92973206
 10
 * E = -152.580958 hartree ; s = -0.5000 (bw50)
  C    -1.26702117   -0.00105518   -0.21957520
  C    +0.10402513   -0.54774816   +0.23251307
  O    +1.18483518   +0.36463327   -0.01117781
  H    -1.45866903   +0.93742684   +0.29691816
  H    -2.07090906   -0.68337309   +0.03672225
  H    -1.29317679   +0.20641986   -1.28526294
  H    +0.08355920   -0.72006679   +1.31245316
  H    +0.29095274   -1.51634780   -0.24849791
  H    +1.17774102   +0.48621279   -0.99489497
  H    -1.68614697   +2.03711104   +0.90571484
 10
 * E = -152.577781 hartree ; s = -0.4000 (bw40)
  C    -1.26699789   -0.00085092   -0.21935825
  C    +0.10396004   -0.54724808   +0.23277923
  O    +1.18491985   +0.36462109   -0.01118786
  H    -1.46204680   +0.95708316   +0.30839919
  H    -2.07427677   -0.67869887   +0.04039898
  H    -1.29479926   +0.21324625   -1.28425382
  H    +0.08355285   -0.72015993   +1.31264313
  H    +0.29037700   -1.51611123   -0.24852913
  H    +1.17770613   +0.48637418   -0.99488280
  H    -1.67802517   +1.99750428   +0.88377673
 10
 * E = -152.573662 hartree ; s = -0.3000 (bw30)
  C    -1.26667720   -0.00200611   -0.21990223
  C    +0.10393993   -0.54687026   +0.23298985
  O    +1.18497013   +0.36460680   -0.01119792
  H    -1.46838209   +0.98886921   +0.32621182
  H    -2.07708879   -0.67530791   +0.04345286
  H    -1.29595924   +0.21866608   -1.28380087
  H    +0.08353274   -0.72025518   +1.31278492
  H    +0.28990920   -1.51605409   -0.24862174
  H    +1.17770823   +0.48649907   -0.99488227
  H    -1.67161525   +1.96632989   +0.86651976
 10
 * E = -152.569048 hartree ; s = -0.2000 (bw20)
  C    -1.26619989   -0.00394819   -0.22089285
  C    +0.10393675   -0.54657603   +0.23315284
  O    +1.18500293   +0.36459622   -0.01120321
  H    -1.47602289   +1.02618201   +0.34692699
  H    -2.07930976   -0.67273715   +0.04590612
  H    -1.29681385   +0.22292701   -1.28352408
  H    +0.08351316   -0.72032924   +1.31289288
  H    +0.28950280   -1.51607575   -0.24874080
  H    +1.17772779   +0.48659115   -0.99488227
  H    -1.66661083   +1.94201579   +0.85306700
 10
 * E = -152.565330 hartree ; s = -0.1000 (bw10)
  C    -1.26564320   -0.00630091   -0.22212478
  C    +0.10393675   -0.54632784   +0.23329413
  O    +1.18502675   +0.36458616   -0.01120321
  H    -1.48418121   +1.06572905   +0.36882381
  H    -2.08120106   -0.67051619   +0.04804400
  H    -1.29752504   +0.22661908   -1.28326426
  H    +0.08349305   -0.72038374   +1.31299024
  H    +0.28912920   -1.51612498   -0.24886199
  H    +1.17775003   +0.48666576   -0.99489123
  H    -1.66244723   +1.92180284   +0.84188707
 10
 * E = -152.563913 hartree ; s =  0.0000 (saddle)
  C    -1.26502010   -0.00899380   -0.22354935
  C    +0.10393276   -0.54609439   +0.23342428
  O    +1.18504710   +0.36457567   -0.01120324
  H    -1.49261712   +1.10654666   +0.39139796
  H    -2.08296617   -0.66837403   +0.05009771
  H    -1.29818310   +0.23014773   -1.28297693
  H    +0.08347635   -0.72042228   +1.31308232
  H    +0.28878229   -1.51618207   -0.24896520
  H    +1.17777144   +0.48673676   -0.99490241
  H    -1.65894758   +1.90480837   +0.83249097
 10
 * E = -152.565257 hartree ; s =  0.1000 (fw10)
  C    -1.26432289   -0.01203614   -0.22516384
  C    +0.10392300   -0.54585900   +0.23355501
  O    +1.18506802   +0.36456923   -0.01120374
  H    -1.50124979   +1.14816428   +0.41440291
  H    -2.08479416   -0.66611185   +0.05224408
  H    -1.29887025   +0.23385982   -1.28264089
  H    +0.08345601   -0.72044305   +1.31318395
  H    +0.28846402   -1.51624511   -0.24903926
  H    +1.17780085   +0.48679594   -0.99490979
  H    -1.65606324   +1.89079518   +0.82473910
 10
 * E = -152.568431 hartree ; s =  0.2000 (fw20)
  C    -1.26346986   -0.01580494   -0.22717313
  C    +0.10391294   -0.54560710   +0.23369789
  O    +1.18509607   +0.36456923   -0.01120903
  H    -1.51004577   +1.19061010   +0.43786080
  H    -2.08694318   -0.66346176   +0.05476508
  H    -1.29966873   +0.23822077   -1.28224982
  H    +0.08341421   -0.72043878   +1.31330514
  H    +0.28822589   -1.51631707   -0.24902815
  H    +1.17782995   +0.48686103   -0.99491717
  H    -1.65453607   +1.88328505   +0.82058504
 10
 * E = -152.571934 hartree ; s =  0.3000 (fw30)
  C    -1.26238505   -0.02068395   -0.22978886
  C    +0.10391188   -0.54534093   +0.23386192
  O    +1.18513312   +0.36457187   -0.01121909
  H    -1.51854704   +1.23172611   +0.46059108
  H    -2.08973617   -0.66012425   +0.05795919
  H    -1.30070014   +0.24377395   -1.28181590
  H    +0.08329619   -0.72036097   +1.31345595
  H    +0.28821901   -1.51641390   -0.24881595
  H    +1.17785108   +0.48693775   -0.99491985
  H    -1.65558699   +1.88811114   +0.82325210
 10
 * E = -152.575214 hartree ; s =  0.4000 (fw40)
  C    -1.26118011   -0.02631598   -0.23283903
  C    +0.10395475   -0.54513191   +0.23402174
  O    +1.18517280   +0.36459093   -0.01123126
  H    -1.52592586   +1.26762285   +0.48045216
  H    -2.09303504   -0.65632894   +0.06156501
  H    -1.30193576   +0.25013625   -1.28139310
  H    +0.08302102   -0.72013874   +1.31363111
  H    +0.28870374   -1.51658221   -0.24826190
  H    +1.17786221   +0.48701819   -0.99492513
  H    -1.65940923   +1.90619000   +0.83324722
 10
 * E = -152.578304 hartree ; s =  0.5000 (fw50)
  C    -1.26002279   -0.03204221   -0.23598288
  C    +0.10406111   -0.54503982   +0.23415403
  O    +1.18521302   +0.36463009   -0.01124396
  H    -1.53250779   +1.29986297   +0.49831295
  H    -2.09642494   -0.65249083   +0.06509885
  H    -1.30325077   +0.25652606   -1.28098300
  H    +0.08255217   -0.71973708   +1.31381207
  H    +0.28980020   -1.51689020   -0.24733426
  H    +1.17785904   +0.48709704   -0.99493198
  H    -1.66443905   +1.93001883   +0.84642688
 10
 * E = -152.581190 hartree ; s =  0.6000 (fw60)
  C    -1.25895810   -0.03768906   -0.23913889
  C    +0.10424103   -0.54508692   +0.23425194
  O    +1.18524794   +0.36469412   -0.01125983
  H    -1.53877802   +1.33076901   +0.51544982
  H    -2.09974816   -0.64871197   +0.06842896
  H    -1.30460494   +0.26271320   -1.28055013
  H    +0.08189017   -0.71913700   +1.31400679
  H    +0.29152002   -1.51738390   -0.24603618
  H    +1.17784476   +0.48716583   -0.99494310
  H    -1.66987423   +1.95576384   +0.86067496
 10
 * E = -152.583857 hartree ; s =  0.7000 (fw70)
  C    -1.25799499   -0.04322425   -0.24229014
  C    +0.10449715   -0.54528325   +0.23431385
  O    +1.18527017   +0.36478408   -0.01127412
  H    -1.54489424   +1.36107397   +0.53227289
  H    -2.10295605   -0.64501992   +0.07152306
  H    -1.30597497   +0.26863998   -1.28008705
  H    +0.08104878   -0.71832682   +1.31422111
  H    +0.29384575   -1.51809193   -0.24436822
  H    +1.17782515   +0.48722192   -0.99496218
  H    -1.67551319   +1.98246294   +0.87546391
 10
 * E = -152.586302 hartree ; s =  0.8000 (fw80)
  C    -1.25713084   -0.04863191   -0.24543503
  C    +0.10483424   -0.54563198   +0.23433977
  O    +1.18527705   +0.36490314   -0.01128894
  H    -1.55090993   +1.39103277   +0.54891392
  H    -2.10602688   -0.64144479   +0.07437110
  H    -1.30734500   +0.27427520   -1.27961296
  H    +0.08004811   -0.71730289   +1.31445505
  H    +0.29673612   -1.51903284   -0.24233300
  H    +1.17780612   +0.48726002   -0.99498917
  H    -1.68128809   +2.00980181   +0.89061584
 10
 * E = -152.588529 hartree ; s =  0.9000 (fw90)
  C    -1.25636301   -0.05390411   -0.24856883
  C    +0.10525123   -0.54613999   +0.23433290
  O    +1.18526011   +0.36505713   -0.01130481
  H    -1.55685203   +1.42077519   +0.56544701
  H    -2.10894897   -0.63801625   +0.07696777
  H    -1.30869706   +0.27959395   -1.27914304
  H    +0.07890402   -0.71606406   +1.31470901
  H    +0.30013715   -1.52021184   -0.23993583
  H    +1.17779927   +0.48727220   -0.99502512
  H    -1.68716779   +2.03761323   +0.90604292
 10
 * E = -152.590547 hartree ; s =  1.0000 (fw100)
  C    -1.25567614   -0.05903183   -0.25168409
  C    +0.10574495   -0.54680622   +0.23429216
  O    +1.18521090   +0.36524499   -0.01132016
  H    -1.56273811   +1.45038688   +0.58191394
  H    -2.11171181   -0.63475919   +0.07931097
  H    -1.31001207   +0.28457404   -1.27870010
  H    +0.07763982   -0.71461517   +1.31498317
  H    +0.30397791   -1.52162789   -0.23719892
  H    +1.17780876   +0.48724891   -0.99507119
  H    -1.69312787   +2.06578879   +0.92168702
 10
 * E = -152.592368 hartree ; s =  1.1000 (fw110)
  C    -1.25505595   -0.06401615   -0.25478295
  C    +0.10631488   -0.54762803   +0.23422125
  O    +1.18512518   +0.36546777   -0.01133921
  H    -1.56857600   +1.47992504   +0.59834492
  H    -2.11429790   -0.63169789   +0.08139698
  H    -1.31126619   +0.28919482   -1.27831008
  H    +0.07628724   -0.71298004   +1.31527208
  H    +0.30817587   -1.52327314   -0.23415192
  H    +1.17784898   +0.48718012   -0.99513518
  H    -1.69915890   +2.09425321   +0.93750675
 10
 * E = -152.594004 hartree ; s =  1.2000 (fw120)
  C    -1.25448283   -0.06885601   -0.25785482
  C    +0.10695677   -0.54859695   +0.23412598
  O    +1.18499076   +0.36572389   -0.01135879
  H    -1.57437520   +1.50943089   +0.61476578
  H    -2.11669983   -0.62885988   +0.08322423
  H    -1.31243091   +0.29343617   -1.27798997
  H    +0.07487487   -0.71118188   +1.31557423
  H    +0.31263525   -1.52513002   -0.23083821
  H    +1.17792783   +0.48704994   -0.99521298
  H    -1.70525081   +2.12295104   +0.95347519
 10
 * E = -152.595470 hartree ; s =  1.3000 (fw130)
  C    -1.25393091   -0.07355510   -0.26090024
  C    +0.10765899   -0.54970294   +0.23401115
  O    +1.18479603   +0.36601389   -0.01138525
  H    -1.58013693   +1.53893674   +0.63118880
  H    -2.11889912   -0.62626377   +0.08478477
  H    -1.31346918   +0.29727588   -1.27776188
  H    +0.07343180   -0.70926786   +1.31588275
  H    +0.31726291   -1.52717313   -0.22731283
  H    +1.17805587   +0.48683721   -0.99531087
  H    -1.71139881   +2.15184622   +0.96956802
 10
 * E = -152.596778 hartree ; s =  1.4000 (fw140)
  C    -1.25338110   -0.07811714   -0.26391178
  C    +0.10841095   -0.55092586   +0.23388415
  O    +1.18453514   +0.36633509   -0.01141911
  H    -1.58586576   +1.56847016   +0.64762874
  H    -2.12088299   -0.62392800   +0.08607808
  H    -1.31434282   +0.30069701   -1.27763911
  H    +0.07199509   -0.70728505   +1.31619285
  H    +0.32197099   -1.52936500   -0.22364087
  H    +1.17824004   +0.48652077   -0.99543422
  H    -1.71760500   +2.18091129   +0.98577302
 10
 * E = -152.597943 hartree ; s =  1.5000 (fw150)
  C    -1.25280906   -0.08255323   -0.26688523
  C    +0.10920418   -0.55225199   +0.23375398
  O    +1.18419488   +0.36668382   -0.01146304
  H    -1.59156292   +1.59805328   +0.66409520
  H    -2.12264884   -0.62187319   +0.08709516
  H    -1.31500905   +0.30367522   -1.27764280
  H    +0.07059012   -0.70528896   +1.31650296
  H    +0.32667802   -1.53166482   -0.21989324
  H    +1.17848610   +0.48606991   -0.99558819
  H    -1.72386886   +2.21012717   +1.00207697
