 10
 * E = -152.598570 hartree ; s = -2.2000 (bw220)
  C    -1.08776609   -0.43517894   -0.01935677
  C    +0.12115089   +0.52652022   +0.04146474
  O    +1.38128110   -0.14762721   -0.07819916
  H    -2.01252707   +0.12843819   +0.02721823
  H    -1.07452979   -1.00446618   -0.94346422
  H    -1.06923324   -1.13079719   +0.81484612
  H    +0.06668797   +1.23081910   -0.79343880
  H    +0.07176119   +1.11264005   +0.96790214
  H    +1.39890798   -0.76110921   +0.70011413
  H    -3.78192318   +1.34372485   +0.13171380
 10
 * E = -152.598330 hartree ; s = -2.1000 (bw210)
  C    -1.08893822   -0.43387080   -0.01925782
  C    +0.12067675   +0.52674882   +0.04146421
  O    +1.38054291   -0.14775103   -0.07817905
  H    -2.01240219   +0.13128516   +0.02759818
  H    -1.07715291   -1.00293900   -0.94348697
  H    -1.07160818   -1.12946208   +0.81495511
  H    +0.06645302   +1.23107310   -0.79343615
  H    +0.07149713   +1.11293480   +0.96787093
  H    +1.39809680   -0.76106109   +0.70026710
  H    -3.73906826   +1.31481591   +0.12925683
 10
 * E = -152.598041 hartree ; s = -2.0000 (bw200)
  C    -1.09012622   -0.43259125   -0.01916415
  C    +0.12019890   +0.52687581   +0.04145416
  O    +1.37987511   -0.14779814   -0.07815789
  H    -2.01204502   +0.13441789   +0.02797019
  H    -1.08005281   -1.00142078   -0.94351978
  H    -1.07427896   -1.12810210   +0.81510225
  H    +0.06613392   +1.23123608   -0.79342396
  H    +0.07114682   +1.11311896   +0.96783391
  H    +1.39745803   -0.76091028   +0.70043904
  H    -3.69624617   +1.28597524   +0.12680726
 10
 * E = -152.597697 hartree ; s = -1.9000 (bw190)
  C    -1.09131105   -0.43134821   -0.01907419
  C    +0.11971893   +0.52691604   +0.04144198
  O    +1.37925813   -0.14777697   -0.07813407
  H    -2.01143380   +0.13782209   +0.02833797
  H    -1.08322204   -0.99991210   -0.94356796
  H    -1.07723281   -1.12672516   +0.81528376
  H    +0.06573280   +1.23132180   -0.79340174
  H    +0.07071501   +1.11320894   +0.96779420
  H    +1.39695216   -0.76066685   +0.70062585
  H    -3.65346325   +1.25721500   +0.12436511
 10
 * E = -152.597286 hartree ; s = -1.8000 (bw180)
  C    -1.09247523   -0.43015016   -0.01898794
  C    +0.11923580   +0.52689011   +0.04142611
  O    +1.37867700   -0.14769918   -0.07810920
  H    -2.01056807   +0.14145489   +0.02869781
  H    -1.08664475   -0.99840976   -0.94363515
  H    -1.08045708   -1.12533185   +0.81550495
  H    +0.06526078   +1.23135726   -0.79336788
  H    +0.07021494   +1.11323008   +0.96774975
  H    +1.39653784   -0.76034985   +0.70082906
  H    -3.61071792   +1.22854574   +0.12193195
 10
 * E = -152.596799 hartree ; s = -1.7000 (bw170)
  C    -1.09360926   -0.42900026   -0.01890803
  C    +0.11874895   +0.52682290   +0.04140812
  O    +1.37811876   -0.14757799   -0.07808486
  H    -2.00947477   +0.14524909   +0.02905183
  H    -1.09030509   -0.99691006   -0.94372404
  H    -1.08393378   -1.12392582   +0.81576425
  H    +0.06474113   +1.23136890   -0.79332183
  H    +0.06967200   +1.11321792   +0.96770109
  H    +1.39618594   -0.75996779   +0.70104180
  H    -3.56800695   +1.19996699   +0.11950515
 10
 * E = -152.596224 hartree ; s = -1.6000 (bw160)
  C    -1.09471525   -0.42789904   -0.01882813
  C    +0.11826211   +0.52674299   +0.04139012
  O    +1.37758010   -0.14742877   -0.07806211
  H    -2.00822221   +0.14910679   +0.02938997
  H    -1.09418923   -0.99540299   -0.94383411
  H    -1.08764916   -1.12250394   +0.81606322
  H    +0.06420084   +1.23138795   -0.79326098
  H    +0.06912219   +1.11320204   +0.96765079
  H    +1.39587104   -0.75954024   +0.70126778
  H    -3.52531401   +1.17147295   +0.11708416
 10
 * E = -152.595548 hartree ; s = -1.5000 (bw150)
  C    -1.09580376   -0.42684598   -0.01875298
  C    +0.11777209   +0.52667102   +0.04137584
  O    +1.37706407   -0.14726419   -0.07804094
  H    -2.00690087   +0.15292004   +0.02971118
  H    -1.09827715   -0.99387894   -0.94397383
  H    -1.09158199   -1.12105981   +0.81640085
  H    +0.06367907   +1.23143982   -0.79318424
  H    +0.06859724   +1.11321106   +0.96760105
  H    +1.39558581   -0.75908197   +0.70150482
  H    -3.48262213   +1.14305507   +0.11467217
 10
 * E = -152.594756 hartree ; s = -1.4000 (bw140)
  C    -1.09689016   -0.42583314   -0.01868207
  C    +0.11728208   +0.52663082   +0.04136578
  O    +1.37658681   -0.14709803   -0.07802083
  H    -2.00561919   +0.15657824   +0.03001017
  H    -1.10254176   -0.99232421   -0.94414423
  H    -1.09570585   -1.11958021   +0.81678290
  H    +0.06320281   +1.23154195   -0.79309695
  H    +0.06812892   +1.11327084   +0.96755504
  H    +1.39532705   -0.75861309   +0.70175088
  H    -3.43991380   +1.11470119   +0.11226283
 10
 * E = -152.593835 hartree ; s = -1.3000 (bw130)
  C    -1.09799614   -0.42485203   -0.01861222
  C    +0.11679206   +0.52663716   +0.04136525
  O    +1.37615917   -0.14694193   -0.07800495
  H    -2.00449524   +0.15999091   +0.03028375
  H    -1.10694613   -0.99071974   -0.94434424
  H    -1.09998214   -1.11805196   +0.81720995
  H    +0.06279111   +1.23170016   -0.79300698
  H    +0.06773786   +1.11338781   +0.96751905
  H    +1.39510113   -0.75814796   +0.70200121
  H    -3.39717321   +1.08639606   +0.10985877
 10
 * E = -152.592764 hartree ; s = -1.2000 (bw120)
  C    -1.09914710   -0.42389423   -0.01854290
  C    +0.11630310   +0.52670119   +0.04136896
  O    +1.37579411   -0.14680593   -0.07799490
  H    -2.00365013   +0.16310088   +0.03053194
  H    -1.11143723   -0.98905919   -0.94457710
  H    -1.10435422   -1.11646706   +0.81768622
  H    +0.06245402   +1.23191396   -0.79292707
  H    +0.06742723   +1.11356507   +0.96750317
  H    +1.39492011   -0.75770397   +0.70225202
  H    -3.35438818   +1.05813111   +0.10745896
 10
 * E = -152.591524 hartree ; s = -1.1000 (bw110)
  C    -1.10036315   -0.42295124   -0.01847411
  C    +0.11582684   +0.52683084   +0.04138483
  O    +1.37550408   -0.14669586   -0.07799225
  H    -2.00320879   +0.16589706   +0.03075790
  H    -1.11594795   -0.98733991   -0.94484698
  H    -1.10875908   -1.11482396   +0.81820902
  H    +0.06219314   +1.23216904   -0.79286991
  H    +0.06719387   +1.11378890   +0.96751693
  H    +1.39478622   -0.75728908   +0.70250182
  H    -3.31155819   +1.02989314   +0.10505914
 10
 * E = -152.590095 hartree ; s = -1.0000 (bw100)
  C    -1.10165805   -0.42201618   -0.01840690
  C    +0.11537386   +0.52703087   +0.04140706
  O    +1.37529290   -0.14661384   -0.07799225
  H    -2.00334426   +0.16844981   +0.03097010
  H    -1.12040098   -0.98558514   -0.94516605
  H    -1.11312005   -1.11314279   +0.81879115
  H    +0.06199417   +1.23244792   -0.79285086
  H    +0.06702506   +1.11404399   +0.96756879
  H    +1.39470795   -0.75691076   +0.70274893
  H    -3.26868318   +1.00167689   +0.10265879
 10
 * E = -152.588451 hartree ; s = -0.9000 (bw90)
  C    -1.10300903   -0.42110123   -0.01834287
  C    +0.11496216   +0.52729280   +0.04143881
  O    +1.37516111   -0.14656092   -0.07799702
  H    -2.00440791   +0.17099779   +0.03118918
  H    -1.12471802   -0.98384203   -0.94558199
  H    -1.11735398   -1.11148381   +0.81946478
  H    +0.06184123   +1.23272783   -0.79287573
  H    +0.06689700   +1.11431279   +0.96766298
  H    +1.39468781   -0.75657683   +0.70298492
  H    -3.22577697   +0.97348393   +0.10026003
 10
 * E = -152.586564 hartree ; s = -0.8000 (bw80)
  C    -1.10428806   -0.42026513   -0.01828678
  C    +0.11460497   +0.52761403   +0.04147903
  O    +1.37509826   -0.14653605   -0.07800707
  H    -2.00725808   +0.17414798   +0.03147017
  H    -1.12882126   -0.98220423   -0.94619003
  H    -1.12138313   -1.10995078   +0.82032097
  H    +0.06170894   +1.23299086   -0.79294717
  H    +0.06678693   +1.11456414   +0.96779792
  H    +1.39472118   -0.75628576   +0.70320984
  H    -3.18293691   +0.94536820   +0.09786921
 10
 * E = -152.584383 hartree ; s = -0.7000 (bw70)
  C    -1.10516596   -0.41968198   -0.01825185
  C    +0.11431074   +0.52797703   +0.04152401
  O    +1.37509297   -0.14653499   -0.07801818
  H    -2.01366694   +0.17914395   +0.03191309
  H    -1.13261811   -0.98079980   -0.94710920
  H    -1.12511808   -1.10868499   +0.82144921
  H    +0.06158512   +1.23320887   -0.79305620
  H    +0.06667686   +1.11477422   +0.96795718
  H    +1.39480209   -0.75604502   +0.70341779
  H    -3.14070325   +0.91767317   +0.09551278
 10
 * E = -152.581794 hartree ; s = -0.6000 (bw60)
  C    -1.10514481   -0.41963489   -0.01825926
  C    +0.11407579   +0.52834482   +0.04157110
  O    +1.37512314   -0.14655087   -0.07803088
  H    -2.02574700   +0.18748590   +0.03264177
  H    -1.13596777   -0.97972291   -0.94833476
  H    -1.12841800   -1.10778275   +0.82282612
  H    +0.06146499   +1.23336921   -0.79318003
  H    +0.06656626   +1.11492505   +0.96811382
  H    +1.39491800   -0.75585927   +0.70359986
  H    -3.10083082   +0.89154610   +0.09328918
 10
 * E = -152.578639 hartree ; s = -0.5000 (bw50)
  C    -1.10400813   -0.42026990   -0.01832276
  C    +0.11388581   +0.52868190   +0.04161185
  O    +1.37516111   -0.14657891   -0.07804094
  H    -2.04361781   +0.19939927   +0.03366784
  H    -1.13877084   -0.97894398   -0.94966618
  H    -1.13118192   -1.10718794   +0.82425489
  H    +0.06135281   +1.23347399   -0.79329592
  H    +0.06645990   +1.11501976   +0.96824612
  H    +1.39504978   -0.75573012   +0.70374909
  H    -3.06555798   +0.86844490   +0.09132223
 10
 * E = -152.574945 hartree ; s = -0.4000 (bw40)
  C    -1.10199090   -0.42145895   -0.01843177
  C    +0.11372124   +0.52897506   +0.04164678
  O    +1.37519287   -0.14660907   -0.07805099
  H    -2.06534320   +0.21372885   +0.03489395
  H    -1.14110294   -0.97834388   -0.95091612
  H    -1.13348593   -1.10675824   +0.82557307
  H    +0.06125703   +1.23354226   -0.79339275
  H    +0.06636623   +1.11507800   +0.96834877
  H    +1.39518098   -0.75564599   +0.70386811
  H    -3.03518323   +0.84855997   +0.08962886
 10
 * E = -152.571059 hartree ; s = -0.3000 (bw30)
  C    -1.09940693   -0.42301579   -0.01856883
  C    +0.11356619   +0.52923489   +0.04167694
  O    +1.37521880   -0.14663924   -0.07806105
  H    -2.08919693   +0.22940414   +0.03623118
  H    -1.14312808   -0.97782212   -0.95203477
  H    -1.13548994   -1.10638679   +0.82675314
  H    +0.06117289   +1.23359200   -0.79347001
  H    +0.06628209   +1.11511290   +0.96842976
  H    +1.39530907   -0.75558991   +0.70397026
  H    -3.00858992   +0.83115482   +0.08814399
 10
 * E = -152.567586 hartree ; s = -0.2000 (bw20)
  C    -1.09644301   -0.42482506   -0.01872494
  C    +0.11341591   +0.52947196   +0.04170498
  O    +1.37523892   -0.14666887   -0.07807110
  H    -2.11426881   +0.24585679   +0.03762979
  H    -1.14498126   -0.97732206   -0.95305082
  H    -1.13732619   -1.10602588   +0.82782526
  H    +0.06109721   +1.23363328   -0.79353985
  H    +0.06621118   +1.11513990   +0.96849695
  H    +1.39542920   -0.75555501   +0.70406077
  H    -2.98476109   +0.81556581   +0.08681681
 10
 * E = -152.565183 hartree ; s = -0.1000 (bw10)
  C    -1.09317005   -0.42683699   -0.01889798
  C    +0.11326509   +0.52969898   +0.04172986
  O    +1.37525903   -0.14669903   -0.07808116
  H    -2.14015616   +0.26283174   +0.03906915
  H    -1.14676408   -0.97681723   -0.95400809
  H    -1.13909416   -1.10564910   +0.82883914
  H    +0.06102683   +1.23367191   -0.79360122
  H    +0.06614080   +1.11516212   +0.96855624
  H    +1.39554507   -0.75553593   +0.70414279
  H    -2.96321089   +0.80147276   +0.08561717
 10
 * E = -152.564335 hartree ; s =  0.0000 (saddle)
  C    -1.08955559   -0.42907329   -0.01909043
  C    +0.11310546   +0.52991912   +0.04175278
  O    +1.37527940   -0.14672814   -0.07808363
  H    -2.16675875   +0.28026759   +0.04054837
  H    -1.14856997   -0.97628432   -0.95495780
  H    -1.14088153   -1.10524800   +0.82984317
  H    +0.06095822   +1.23370841   -0.79366353
  H    +0.06607431   +1.11519229   +0.96860930
  H    +1.39564896   -0.75554442   +0.70422813
  H    -2.94419523   +0.78904129   +0.08455845
 10
 * E = -152.565114 hartree ; s =  0.1000 (fw10)
  C    -1.08557583   -0.43154084   -0.01930121
  C    +0.11294018   +0.53014401   +0.04177907
  O    +1.37530719   -0.14675883   -0.07809174
  H    -2.19394914   +0.29808288   +0.04205001
  H    -1.15046987   -0.97571915   -0.95594912
  H    -1.14277195   -1.10480823   +0.83090876
  H    +0.06087708   +1.23375021   -0.79372401
  H    +0.06599422   +1.11520921   +0.96867686
  H    +1.39576097   -0.75549782   +0.70431210
  H    -2.92792798   +0.77841595   +0.08365286
 10
 * E = -152.567110 hartree ; s =  0.2000 (fw20)
  C    -1.08098309   -0.43440580   -0.01954516
  C    +0.11276978   +0.53038321   +0.04180923
  O    +1.37535112   -0.14678106   -0.07810179
  H    -2.22181719   +0.31633685   +0.04358674
  H    -1.15259189   -0.97509526   -0.95707784
  H    -1.14488126   -1.10432879   +0.83211422
  H    +0.06077600   +1.23379678   -0.79379702
  H    +0.06589685   +1.11523990   +0.96875095
  H    +1.39585997   -0.75546082   +0.70439623
  H    -2.91682106   +0.77117576   +0.08304219
 10
 * E = -152.569679 hartree ; s =  0.3000 (fw30)
  C    -1.07564422   -0.43776608   -0.01982880
  C    +0.11260997   +0.53063880   +0.04183993
  O    +1.37542575   -0.14679323   -0.07811185
  H    -2.24982603   +0.33467707   +0.04512717
  H    -1.15503297   -0.97441582   -0.95843308
  H    -1.14730489   -1.10382504   +0.83355306
  H    +0.06062995   +1.23384123   -0.79388595
  H    +0.06575503   +1.11527696   +0.96884514
  H    +1.39594409   -0.75540310   +0.70447772
  H    -2.91353911   +0.76906913   +0.08287603
 10
 * E = -152.572374 hartree ; s =  0.4000 (fw40)
  C    -1.06970209   -0.44155711   -0.02015001
  C    +0.11249884   +0.53090920   +0.04187379
  O    +1.37555489   -0.14678582   -0.07812190
  H    -2.27681880   +0.35234576   +0.04660305
  H    -1.15775505   -0.97372682   -0.96002219
  H    -1.15000315   -1.10333926   +0.83522685
  H    +0.06041511   +1.23387881   -0.79399919
  H    +0.06554389   +1.11530978   +0.96896211
  H    +1.39600703   -0.75531423   +0.70456085
  H    -2.91944316   +0.77299190   +0.08323481
 10
 * E = -152.575044 hartree ; s =  0.5000 (fw50)
  C    -1.06355676   -0.44556086   -0.02048498
  C    +0.11247397   +0.53116691   +0.04190978
  O    +1.37575124   -0.14674507   -0.07813196
  H    -2.30229606   +0.36901802   +0.04798791
  H    -1.16059198   -0.97308280   -0.96174784
  H    -1.15281520   -1.10291378   +0.83702977
  H    +0.06012194   +1.23389201   -0.79412988
  H    +0.06525178   +1.11532618   +0.96909705
  H    +1.39605310   -0.75518614   +0.70464018
  H    -2.93207514   +0.78134125   +0.08397883
 10
 * E = -152.577630 hartree ; s =  0.6000 (fw60)
  C    -1.05746117   -0.44964082   -0.02082524
  C    +0.11254911   +0.53139500   +0.04194312
  O    +1.37602474   -0.14666675   -0.07814201
  H    -2.32675621   +0.38501504   +0.04931297
  H    -1.16343208   -0.97250496   -0.96350683
  H    -1.15563095   -1.10255608   +0.83885912
  H    +0.05975099   +1.23387087   -0.79427116
  H    +0.06488189   +1.11531716   +0.96923885
  H    +1.39609912   -0.75502473   +0.70470791
  H    -2.94825526   +0.79203913   +0.08492924
 10
 * E = -152.580097 hartree ; s =  0.7000 (fw70)
  C    -1.05151216   -0.45375094   -0.02116497
  C    +0.11272110   +0.53158020   +0.04197275
  O    +1.37638993   -0.14654399   -0.07815207
  H    -2.35068508   +0.40065384   +0.05060310
  H    -1.16622877   -0.97199323   -0.96523722
  H    -1.15840594   -1.10226024   +0.84065726
  H    +0.05930912   +1.23380577   -0.79442095
  H    +0.06444214   +1.11526798   +0.96938278
  H    +1.39617218   -0.75483692   +0.70475978
  H    -2.96629917   +0.80398902   +0.08599024
 10
 * E = -152.582422 hartree ; s =  0.8000 (fw80)
  C    -1.04574413   -0.45787322   -0.02150100
  C    +0.11298410   +0.53171091   +0.04199497
  O    +1.37685819   -0.14637095   -0.07815577
  H    -2.37433717   +0.41610475   +0.05187577
  H    -1.16896200   -0.97155189   -0.96690202
  H    -1.16111904   -1.10202213   +0.84238395
  H    +0.05880217   +1.23368775   -0.79457282
  H    +0.06394313   +1.11517219   +0.96952198
  H    +1.39629705   -0.75462892   +0.70478888
  H    -2.98550775   +0.81673001   +0.08712320
 10
 * E = -152.584595 hartree ; s =  0.9000 (fw90)
  C    -1.04018724   -0.46199393   -0.02183121
  C    +0.11333282   +0.53177389   +0.04200820
  O    +1.37744408   -0.14614076   -0.07815524
  H    -2.39784906   +0.43145617   +0.05314103
  H    -1.17161316   -0.97118887   -0.96848215
  H    -1.16375700   -1.10184326   +0.84402497
  H    +0.05824124   +1.23350624   -0.79472786
  H    +0.06339384   +1.11501607   +0.96965215
  H    +1.39650184   -0.75440827   +0.70478888
  H    -3.00555087   +0.83005520   +0.08830910
 10
 * E = -152.586611 hartree ; s =  1.0000 (fw100)
  C    -1.03486107   -0.46609875   -0.02215824
  C    +0.11375775   +0.53175007   +0.04201085
  O    +1.37816216   -0.14584282   -0.07814995
  H    -2.42130006   +0.44675785   +0.05439995
  H    -1.17418020   -0.97091424   -0.96996491
  H    -1.16631188   -1.10173479   +0.84556381
  H    +0.05763693   +1.23324907   -0.79488185
  H    +0.06281016   +1.11478694   +0.96976486
  H    +1.39681985   -0.75417807   +0.70474497
  H    -3.02624013   +0.84384026   +0.08953519
 10
 * E = -152.588470 hartree ; s =  1.1000 (fw110)
  C    -1.02978997   -0.47017078   -0.02247892
  C    +0.11425201   +0.53162677   +0.04200291
  O    +1.37902790   -0.14546817   -0.07813407
  H    -2.44475001   +0.46205107   +0.05565198
  H    -1.17665410   -0.97073907   -0.97134021
  H    -1.16877676   -1.10170410   +0.84699415
  H    +0.05699715   +1.23290405   -0.79503320
  H    +0.06219684   +1.11447100   +0.96985588
  H    +1.39728609   -0.75394788   +0.70465183
  H    -3.04745324   +0.85801216   +0.09079675
 10
 * E = -152.590178 hartree ; s =  1.2000 (fw120)
  C    -1.02499192   -0.47419887   -0.02279219
  C    +0.11480500   +0.53138177   +0.04197804
  O    +1.38005295   -0.14500990   -0.07810709
  H    -2.46823226   +0.47735596   +0.05690190
  H    -1.17902904   -0.97067717   -0.97260709
  H    -1.17115013   -1.10176283   +0.84831024
  H    +0.05633621   +1.23245425   -0.79518295
  H    +0.06156924   +1.11405085   +0.96991991
  H    +1.39793592   -0.75372191   +0.70450102
  H    -3.06909816   +0.87250899   +0.09209218
 10
 * E = -152.591742 hartree ; s =  1.3000 (fw130)
  C    -1.02048809   -0.47816188   -0.02309488
  C    +0.11540984   +0.53100022   +0.04193518
  O    +1.38125622   -0.14445479   -0.07806581
  H    -2.49176902   +0.49268886   +0.05815181
  H    -1.18130397   -0.97074280   -0.97376385
  H    -1.17342875   -1.10192421   +0.84950988
  H    +0.05566415   +1.23188380   -0.79533005
  H    +0.06093476   +1.11351216   +0.96995324
  H    +1.39880219   -0.75350389   +0.70428300
  H    -3.09110611   +0.88728782   +0.09341512
 10
 * E = -152.593169 hartree ; s =  1.4000 (fw140)
  C    -1.01629700   -0.48204817   -0.02338805
  C    +0.11605915   +0.53045994   +0.04187326
  O    +1.38264580   -0.14379703   -0.07801078
  H    -2.51536980   +0.50805512   +0.05940226
  H    -1.18348524   -0.97094493   -0.97480580
  H    -1.17561214   -1.10219093   +0.85059312
  H    +0.05499210   +1.23118000   -0.79547506
  H    +0.06030398   +1.11283588   +0.96995115
  H    +1.39991820   -0.75329805   +0.70398824
  H    -3.11341515   +0.90231487   +0.09476082
 10
 * E = -152.594469 hartree ; s =  1.5000 (fw150)
  C    -1.01243612   -0.48584288   -0.02367115
  C    +0.11674814   +0.52974820   +0.04179018
  O    +1.38423398   -0.14302496   -0.07793775
  H    -2.53903404   +0.52345576   +0.06065217
  H    -1.18557179   -0.97129577   -0.97574086
  H    -1.17770717   -1.10257301   +0.85156203
  H    +0.05433115   +1.23032325   -0.79562007
  H    +0.05968378   +1.11200717   +0.96991196
  H    +1.40131522   -0.75310597   +0.70361093
  H    -3.13596820   +0.91755203   +0.09612716
 10
 * E = -152.595652 hartree ; s =  1.6000 (fw160)
  C    -1.00891816   -0.48953125   -0.02393892
  C    +0.11746993   +0.52885177   +0.04168382
  O    +1.38602513   -0.14213118   -0.07784726
  H    -2.56274915   +0.53888392   +0.06190209
  H    -1.18757684   -0.97179691   -0.97656692
  H    -1.17971911   -1.10307203   +0.85242194
  H    +0.05368979   +1.22929822   -0.79576612
  H    +0.05907681   +1.11100810   +0.96983526
  H    +1.40302182   -0.75292712   +0.70314580
  H    -3.15871380   +0.93296589   +0.09751307
 10
 * E = -152.596729 hartree ; s =  1.7000 (fw170)
  C    -1.00574997   -0.49310109   -0.02419504
  C    +0.11822295   +0.52776219   +0.04155523
  O    +1.38802600   -0.14111092   -0.07774089
  H    -2.58649807   +0.55432689   +0.06314989
  H    -1.18950780   -0.97244992   -0.97728977
  H    -1.18165589   -1.10368372   +0.85317709
  H    +0.05307594   +1.22809701   -0.79591691
  H    +0.05848890   +1.10982907   +0.96972198
  H    +1.40505281   -0.75275406   +0.70259174
  H    -3.18160019   +0.94852422   +0.09891380
 10
 * E = -152.597707 hartree ; s =  1.8000 (fw180)
  C    -1.00293475   -0.49654603   -0.02443793
  C    +0.11900508   +0.52647205   +0.04140494
  O    +1.39023580   -0.13995996   -0.07761495
  H    -2.61025498   +0.56976881   +0.06439187
  H    -1.19138216   -0.97325216   -0.97791418
  H    -1.18353181   -1.10440713   +0.85383696
  H    +0.05249703   +1.22671004   -0.79607408
  H    +0.05792003   +1.10846220   +0.96957119
  H    +1.40742300   -0.75258417   +0.70194987
  H    -3.20457599   +0.96419315   +0.10032882
 10
 * E = -152.598597 hartree ; s =  1.9000 (fw190)
  C    -1.00046614   -0.49986290   -0.02467024
  C    +0.11981577   +0.52498189   +0.04123402
  O    +1.39264407   -0.13868094   -0.07747207
  H    -2.63399227   +0.58519328   +0.06563120
  H    -1.19321523   -0.97419619   -0.97844601
  H    -1.18536011   -1.10522786   +0.85440581
  H    +0.05195197   +1.22513309   -0.79623602
  H    +0.05736598   +1.10690378   +0.96938703
  H    +1.41013819   -0.75240585   +0.70122593
  H    -3.22759100   +0.97993987   +0.10175495
 10
 * E = -152.599407 hartree ; s =  2.0000 (fw200)
  C    -0.99833196   -0.50305491   -0.02489197
  C    +0.12065293   +0.52329594   +0.04104298
  O    +1.39523970   -0.13727491   -0.07731385
  H    -2.65768407   +0.60058386   +0.06686101
  H    -1.19502713   -0.97527096   -0.97889793
  H    -1.18715881   -1.10613596   +0.85489584
  H    +0.05144820   +1.22337197   -0.79640694
  H    +0.05682675   +1.10515802   +0.96917323
  H    +1.41319422   -0.75220902   +0.70042903
  H    -3.25060121   +0.99573900   +0.10318797
 10
 * E = -152.600144 hartree ; s =  2.1000 (fw210)
  C    -0.99651000   -0.50612996   -0.02510523
  C    +0.12151496   +0.52142899   +0.04083502
  O    +1.39801211   -0.13574983   -0.07714081
  H    -2.68130707   +0.61592577   +0.06808288
  H    -1.19683586   -0.97646479   -0.97927524
  H    -1.18894689   -1.10711915   +0.85531916
  H    +0.05098199   +1.22143415   -0.79658581
  H    +0.05629599   +1.10323076   +0.96893090
  H    +1.41657880   -0.75198094   +0.69957014
  H    -3.27357226   +1.01156511   +0.10462786
