 10
 * E = -152.598640 hartree ; s = -2.1000 (bw210)
  C    -1.306566   -0.257765   +0.097344
  C    +0.025372   +0.427814   -0.287692
  O    +1.185483   -0.350829   +0.036097
  H    -2.143276   +0.373528   -0.185466
  H    -1.405334   -1.212900   -0.409026
  H    -1.355099   -0.429526   +1.169111
  H    +0.051664   +0.586211   -1.369403
  H    +0.070371   +1.414218   +0.187515
  H    +1.121570   -0.479367   +1.016868
  H    +0.100811   +3.290952   +1.283750
 10
 * E = -152.598418 hartree ; s = -2.0000 (bw200)
  C    -1.307103   -0.256831   +0.097561
  C    +0.025299   +0.428421   -0.286404
  O    +1.186341   -0.349200   +0.036358
  H    -2.142918   +0.376575   -0.183189
  H    -1.407792   -1.210482   -0.411213
  H    -1.355453   -0.431183   +1.168926
  H    +0.051625   +0.588553   -1.367844
  H    +0.069838   +1.413936   +0.190072
  H    +1.118983   -0.485158   +1.015899
  H    +0.100068   +3.246641   +1.258640
 10
 * E = -152.598152 hartree ; s = -1.9000 (bw190)
  C    -1.307657   -0.255878   +0.097772
  C    +0.025219   +0.428992   -0.285082
  O    +1.187224   -0.347550   +0.036593
  H    -2.142540   +0.379525   -0.181258
  H    -1.410150   -1.208200   -0.413122
  H    -1.356010   -0.432479   +1.168776
  H    +0.051583   +0.591026   -1.366223
  H    +0.069284   +1.413518   +0.192774
  H    +1.116414   -0.491108   +1.014806
  H    +0.099313   +3.202314   +1.233573
 10
 * E = -152.597836 hartree ; s = -1.8000 (bw180)
  C    -1.308195   -0.254915   +0.097976
  C    +0.025136   +0.429550   -0.283740
  O    +1.188091   -0.345908   +0.036806
  H    -2.142145   +0.382347   -0.179628
  H    -1.412358   -1.206061   -0.414762
  H    -1.356679   -0.433441   +1.168661
  H    +0.051552   +0.593698   -1.364542
  H    +0.068715   +1.412956   +0.195658
  H    +1.113921   -0.497012   +1.013632
  H    +0.098546   +3.157934   +1.208532
 10
 * E = -152.597462 hartree ; s = -1.7000 (bw170)
  C    -1.308686   -0.253945   +0.098169
  C    +0.025049   +0.430107   -0.282390
  O    +1.188904   -0.344286   +0.037002
  H    -2.141734   +0.385019   -0.178248
  H    -1.414383   -1.204068   -0.416142
  H    -1.357371   -0.434091   +1.168579
  H    +0.051551   +0.596643   -1.362800
  H    +0.068126   +1.412237   +0.198766
  H    +1.111540   -0.502704   +1.012418
  H    +0.097765   +3.113470   +1.183509
 10
 * E = -152.597022 hartree ; s = -1.6000 (bw160)
  C    -1.309101   -0.252975   +0.098349
  C    +0.024959   +0.430673   -0.281047
  O    +1.189631   -0.342696   +0.037188
  H    -2.141300   +0.387531   -0.177071
  H    -1.416200   -1.202223   -0.417276
  H    -1.357995   -0.434451   +1.168529
  H    +0.051603   +0.599925   -1.361003
  H    +0.067521   +1.411340   +0.202137
  H    +1.109284   -0.508053   +1.011204
  H    +0.096970   +3.068908   +1.158496
 10
 * E = -152.596505 hartree ; s = -1.5000 (bw150)
  C    -1.309420   -0.252002   +0.098515
  C    +0.024869   +0.431250   -0.279724
  O    +1.190253   -0.341146   +0.037368
  H    -2.140843   +0.389877   -0.176055
  H    -1.417790   -1.200519   -0.418172
  H    -1.358487   -0.434542   +1.168510
  H    +0.051723   +0.603595   -1.359151
  H    +0.066903   +1.410248   +0.205800
  H    +1.107151   -0.512967   +1.010025
  H    +0.096158   +3.024238   +1.133497
 10
 * E = -152.595900 hartree ; s = -1.4000 (bw140)
  C    -1.309630   -0.251028   +0.098670
  C    +0.024785   +0.431838   -0.278432
  O    +1.190753   -0.339641   +0.037548
  H    -2.140366   +0.392051   -0.175166
  H    -1.419137   -1.198947   -0.418853
  H    -1.358808   -0.434397   +1.168520
  H    +0.051931   +0.607680   -1.357247
  H    +0.066289   +1.408953   +0.209768
  H    +1.105134   -0.517391   +1.008908
  H    +0.095328   +2.979473   +1.108527
 10
 * E = -152.595195 hartree ; s = -1.3000 (bw130)
  C    -1.309730   -0.250049   +0.098820
  C    +0.024715   +0.432433   -0.277182
  O    +1.191119   -0.338177   +0.037721
  H    -2.139884   +0.394046   -0.174377
  H    -1.420225   -1.197488   -0.419348
  H    -1.358954   -0.434063   +1.168559
  H    +0.052237   +0.612183   -1.355295
  H    +0.065694   +1.407465   +0.214028
  H    +1.103229   -0.521304   +1.007861
  H    +0.094483   +2.934623   +1.083599
 10
 * E = -152.594376 hartree ; s = -1.2000 (bw120)
  C    -1.309725   -0.249069   +0.098972
  C    +0.024665   +0.433037   -0.275976
  O    +1.191350   -0.336752   +0.037894
  H    -2.139412   +0.395851   -0.173672
  H    -1.421035   -1.196128   -0.419693
  H    -1.358946   -0.433598   +1.168625
  H    +0.052660   +0.617080   -1.353299
  H    +0.065140   +1.405827   +0.218536
  H    +1.101433   -0.524716   +1.006898
  H    +0.093626   +2.889698   +1.058727
 10
 * E = -152.593427 hartree ; s = -1.1000 (bw110)
  C    -1.309630   -0.248092   +0.099137
  C    +0.024651   +0.433655   -0.274818
  O    +1.191445   -0.335367   +0.038064
  H    -2.138973   +0.397456   -0.173040
  H    -1.421564   -1.194847   -0.419927
  H    -1.358831   -0.433060   +1.168718
  H    +0.053225   +0.622331   -1.351265
  H    +0.064646   +1.404108   +0.223227
  H    +1.099750   -0.527664   +1.006023
  H    +0.092751   +2.844710   +1.033919
 10
 * E = -152.592333 hartree ; s = -1.0000 (bw100)
  C    -1.309467   -0.247129   +0.099323
  C    +0.024688   +0.434299   -0.273705
  O    +1.191410   -0.334016   +0.038234
  H    -2.138585   +0.398856   -0.172474
  H    -1.421817   -1.193636   -0.420085
  H    -1.358666   -0.432513   +1.168837
  H    +0.053954   +0.627893   -1.349197
  H    +0.064224   +1.402423   +0.228011
  H    +1.098204   -0.530202   +1.005233
  H    +0.091864   +2.799661   +1.009180
 10
 * E = -152.591076 hartree ; s = -0.9000 (bw90)
  C    -1.309256   -0.246185   +0.099536
  C    +0.024790   +0.434980   -0.272629
  O    +1.191258   -0.332707   +0.038399
  H    -2.138263   +0.400050   -0.171976
  H    -1.421818   -1.192485   -0.420195
  H    -1.358514   -0.432006   +1.168980
  H    +0.054863   +0.633729   -1.347095
  H    +0.063869   +1.400923   +0.232781
  H    +1.096823   -0.532397   +1.004520
  H    +0.090963   +2.754552   +0.984507
 10
 * E = -152.589639 hartree ; s = -0.8000 (bw80)
  C    -1.309024   -0.245282   +0.099784
  C    +0.024968   +0.435722   -0.271581
  O    +1.190996   -0.331445   +0.038558
  H    -2.138010   +0.401046   -0.171544
  H    -1.421612   -1.191400   -0.420282
  H    -1.358423   -0.431585   +1.169152
  H    +0.055963   +0.639806   -1.344962
  H    +0.063562   +1.399816   +0.237426
  H    +1.095641   -0.534313   +1.003881
  H    +0.090050   +2.709383   +0.959897
 10
 * E = -152.588001 hartree ; s = -0.7000 (bw70)
  C    -1.308792   -0.244434   +0.100069
  C    +0.025235   +0.436532   -0.270553
  O    +1.190642   -0.330235   +0.038709
  H    -2.137822   +0.401863   -0.171185
  H    -1.421258   -1.190389   -0.420354
  H    -1.358424   -0.431278   +1.169351
  H    +0.057248   +0.646102   -1.342794
  H    +0.063280   +1.399370   +0.241862
  H    +1.094689   -0.536015   +1.003306
  H    +0.089123   +2.664157   +0.935341
 10
 * E = -152.586144 hartree ; s = -0.6000 (bw60)
  C    -1.308580   -0.243661   +0.100388
  C    +0.025593   +0.437418   -0.269539
  O    +1.190213   -0.329093   +0.038853
  H    -2.137680   +0.402523   -0.170911
  H    -1.420823   -1.189470   -0.420416
  H    -1.358529   -0.431101   +1.169573
  H    +0.058697   +0.652600   -1.340612
  H    +0.062996   +1.400043   +0.246103
  H    +1.093988   -0.537562   +1.002794
  H    +0.088188   +2.618895   +0.910840
 10
 * E = -152.584046 hartree ; s = -0.5000 (bw50)
  C    -1.308407   -0.242976   +0.100734
  C    +0.026032   +0.438308   -0.268562
  O    +1.189735   -0.328033   +0.038988
  H    -2.137566   +0.403055   -0.170736
  H    -1.420381   -1.188674   -0.420476
  H    -1.358725   -0.431059   +1.169815
  H    +0.060270   +0.659272   -1.338495
  H    +0.062718   +1.403084   +0.250630
  H    +1.093548   -0.538987   +1.002337
  H    +0.087244   +2.573689   +0.886429
 10
 * E = -152.581664 hartree ; s = -0.4000 (bw40)
  C    -1.308282   -0.242393   +0.101093
  C    +0.026519   +0.438864   -0.267789
  O    +1.189238   -0.327084   +0.039110
  H    -2.137458   +0.403475   -0.170663
  H    -1.419991   -1.188049   -0.420546
  H    -1.358972   -0.431134   +1.170060
  H    +0.061882   +0.665976   -1.336677
  H    +0.062570   +1.412487   +0.257480
  H    +1.093352   -0.540282   +1.001936
  H    +0.086310   +2.529315   +0.862511
 10
 * E = -152.578833 hartree ; s = -0.3000 (bw30)
  C    -1.308203   -0.241934   +0.101420
  C    +0.026948   +0.438408   -0.267602
  O    +1.188794   -0.326323   +0.039211
  H    -2.137359   +0.403779   -0.170670
  H    -1.419676   -1.187660   -0.420662
  H    -1.359206   -0.431270   +1.170271
  H    +0.063319   +0.672065   -1.335446
  H    +0.062815   +1.434548   +0.270160
  H    +1.093336   -0.541334   +1.001623
  H    +0.085467   +2.489545   +0.841102
 10
 * E = -152.575488 hartree ; s = -0.2000 (bw20)
  C    -1.308152   -0.241596   +0.101677
  C    +0.027239   +0.436849   -0.268090
  O    +1.188456   -0.325777   +0.039284
  H    -2.137282   +0.403979   -0.170701
  H    -1.419420   -1.187465   -0.420811
  H    -1.359389   -0.431395   +1.170427
  H    +0.064410   +0.676892   -1.334695
  H    +0.063481   +1.467576   +0.288190
  H    +1.093395   -0.542077   +1.001421
  H    +0.084799   +2.458015   +0.824141
 10
 * E = -152.572447 hartree ; s = -0.1000 (bw10)
  C    -1.308112   -0.241330   +0.101882
  C    +0.027429   +0.434673   -0.268981
  O    +1.188194   -0.325367   +0.039341
  H    -2.137230   +0.404121   -0.170731
  H    -1.419202   -1.187363   -0.420971
  H    -1.359533   -0.431495   +1.170549
  H    +0.065251   +0.680788   -1.334128
  H    +0.064366   +1.505550   +0.308679
  H    +1.093467   -0.542621   +1.001305
  H    +0.084262   +2.432723   +0.810538
 10
 * E = -152.571139 hartree ; s =  0.0000 (saddle)
  C    -1.308072   -0.241097   +0.102059
  C    +0.027561   +0.432136   -0.270107
  O    +1.187975   -0.325020   +0.039391
  H    -2.137191   +0.404239   -0.170756
  H    -1.419016   -1.187297   -0.421120
  H    -1.359660   -0.431576   +1.170657
  H    +0.065974   +0.684230   -1.333595
  H    +0.065353   +1.545730   +0.330272
  H    +1.093529   -0.543063   +1.001221
  H    +0.083811   +2.411385   +0.799078
 10
 * E = -152.572602 hartree ; s =  0.1000 (fw10)
  C    -1.308029   -0.240874   +0.102228
  C    +0.027674   +0.429346   -0.271385
  O    +1.187767   -0.324689   +0.039440
  H    -2.137170   +0.404340   -0.170767
  H    -1.418864   -1.187242   -0.421257
  H    -1.359793   -0.431663   +1.170763
  H    +0.066671   +0.687587   -1.333037
  H    +0.066402   +1.586922   +0.352435
  H    +1.093603   -0.543490   +1.001188
  H    +0.083414   +2.392506   +0.788897
 10
 * E = -152.576617 hartree ; s =  0.2000 (fw20)
  C    -1.307976   -0.240643   +0.102400
  C    +0.027762   +0.426115   -0.272897
  O    +1.187564   -0.324352   +0.039491
  H    -2.137142   +0.404455   -0.170778
  H    -1.418788   -1.187188   -0.421353
  H    -1.359932   -0.431743   +1.170878
  H    +0.067412   +0.691147   -1.332418
  H    +0.067514   +1.629253   +0.375172
  H    +1.093649   -0.543915   +1.001136
  H    +0.083097   +2.377334   +0.780734
 10
 * E = -152.581653 hartree ; s =  0.3000 (fw30)
  C    -1.307909   -0.240382   +0.102592
  C    +0.027839   +0.422074   -0.274815
  O    +1.187344   -0.323961   +0.039558
  H    -2.137086   +0.404610   -0.170791
  H    -1.418861   -1.187123   -0.421376
  H    -1.360082   -0.431823   +1.171020
  H    +0.068327   +0.695430   -1.331690
  H    +0.068706   +1.672541   +0.398383
  H    +1.093646   -0.544406   +1.001044
  H    +0.082924   +2.368937   +0.776242
 10
 * E = -152.586152 hartree ; s =  0.4000 (fw40)
  C    -1.307829   -0.240085   +0.102823
  C    +0.027896   +0.416709   -0.277390
  O    +1.187111   -0.323470   +0.039653
  H    -2.136933   +0.404883   -0.170813
  H    -1.419296   -1.187052   -0.421216
  H    -1.360215   -0.431876   +1.171207
  H    +0.069595   +0.701029   -1.330819
  H    +0.069963   +1.714280   +0.420686
  H    +1.093503   -0.545038   +1.000854
  H    +0.083044   +2.374485   +0.779322
 10
 * E = -152.590026 hartree ; s =  0.5000 (fw50)
  C    -1.307768   -0.239820   +0.103060
  C    +0.027908   +0.410538   -0.280404
  O    +1.186928   -0.322933   +0.039773
  H    -2.136603   +0.405354   -0.170841
  H    -1.420356   -1.187030   -0.420749
  H    -1.360232   -0.431816   +1.171434
  H    +0.071168   +0.707389   -1.329935
  H    +0.071168   +1.749927   +0.439648
  H    +1.093099   -0.545795   +1.000543
  H    +0.083454   +2.394473   +0.790264
 10
 * E = -152.593557 hartree ; s =  0.6000 (fw60)
  C    -1.307757   -0.239654   +0.103264
  C    +0.027863   +0.404349   -0.283501
  O    +1.186853   -0.322422   +0.039905
  H    -2.136075   +0.406050   -0.170855
  H    -1.422124   -1.187140   -0.419973
  H    -1.360066   -0.431581   +1.171683
  H    +0.072878   +0.713618   -1.329115
  H    +0.072323   +1.781923   +0.456636
  H    +1.092402   -0.546640   +1.000163
  H    +0.083968   +2.419882   +0.804185
 10
 * E = -152.596780 hartree ; s =  0.7000 (fw70)
  C    -1.307809   -0.239601   +0.103424
  C    +0.027757   +0.398314   -0.286621
  O    +1.186905   -0.321957   +0.040050
  H    -2.135364   +0.406978   -0.170831
  H    -1.424624   -1.187429   -0.418894
  H    -1.359705   -0.431134   +1.171962
  H    +0.074652   +0.719487   -1.328345
  H    +0.073473   +1.812872   +0.473065
  H    +1.091409   -0.547596   +0.999738
  H    +0.084514   +2.446829   +0.818985
 10
 * E = -152.599706 hartree ; s =  0.8000 (fw80)
  C    -1.307933   -0.239673   +0.103535
  C    +0.027591   +0.392464   -0.289757
  O    +1.187094   -0.321544   +0.040211
  H    -2.134483   +0.408145   -0.170746
  H    -1.427870   -1.187915   -0.417521
  H    -1.359155   -0.430455   +1.172270
  H    +0.076451   +0.724918   -1.327639
  H    +0.074631   +1.843443   +0.489289
  H    +1.090131   -0.548698   +0.999277
  H    +0.085071   +2.474503   +0.834228
 10
 * E = -152.602347 hartree ; s =  0.9000 (fw90)
  C    -1.308137   -0.239874   +0.103595
  C    +0.027370   +0.386825   -0.292908
  O    +1.187430   -0.321187   +0.040388
  H    -2.133456   +0.409538   -0.170571
  H    -1.431857   -1.188604   -0.415862
  H    -1.358424   -0.429528   +1.172608
  H    +0.078233   +0.729860   -1.327036
  H    +0.075807   +1.873818   +0.505398
  H    +1.088583   -0.549980   +0.998771
  H    +0.085640   +2.502671   +0.849797
