 10
 * E = -152.596678 hartree ; s = -1.6000 (bw160)
  C    -1.17448394   -0.42885209   -0.01785497
  C    +0.02785007   +0.53861827   +0.04333803
  O    +1.28814010   -0.13429406   -0.07606711
  H    -2.10056419   +0.12841014   +0.02824483
  H    -1.15797786   -0.99779112   -0.94197725
  H    -1.15273793   -1.12414384   +0.81639186
  H    -0.02830992   +1.24243295   -0.79184014
  H    -0.02329279   +1.12467196   +0.96971619
  H    +1.30608978   -0.74693203   +0.70284418
  H    -3.63429278   +1.19796088   +0.12025923
 10
 * E = -152.596081 hartree ; s = -1.5000 (bw150)
  C    -1.17582489   -0.42708782   -0.01773008
  C    +0.02735793   +0.53876802   +0.04334702
  O    +1.28729712   -0.13446022   -0.07606975
  H    -2.09979476   +0.13258376   +0.02871474
  H    -1.16158103   -0.99571623   -0.94202274
  H    -1.15607918   -1.12228116   +0.81658394
  H    -0.02851418   +1.24268323   -0.79176819
  H    -0.02350976   +1.12488312   +0.96970402
  H    +1.30532777   -0.74673995   +0.70310985
  H    -3.59172894   +1.16904614   +0.11780278
 10
 * E = -152.595377 hartree ; s = -1.4000 (bw140)
  C    -1.17719281   -0.42535211   -0.01760784
  C    +0.02685786   +0.53881724   +0.04334702
  O    +1.28652081   -0.13455706   -0.07606975
  H    -2.09872792   +0.13717385   +0.02918518
  H    -1.16561175   -0.99362810   -0.94208889
  H    -1.15986384   -1.12037188   +0.81683105
  H    -0.02880523   +1.24284890   -0.79168511
  H    -0.02381297   +1.12498897   +0.96968604
  H    +1.30469381   -0.74648383   +0.70337125
  H    -3.54918997   +1.14023509   +0.11535693
 10
 * E = -152.594552 hartree ; s = -1.3000 (bw130)
  C    -1.17857925   -0.42366616   -0.01748825
  C    +0.02634720   +0.53880189   +0.04334702
  O    +1.28580907   -0.13459888   -0.07606975
  H    -2.09738487   +0.14212377   +0.02965985
  H    -1.17007487   -0.99152779   -0.94218309
  H    -1.16409407   -1.11842607   +0.81713905
  H    -0.02917513   +1.24296318   -0.79159092
  H    -0.02418816   +1.12503182   +0.96966590
  H    +1.30415404   -0.74617688   +0.70363106
  H    -3.50667588   +1.11153990   +0.11292112
 10
 * E = -152.593588 hartree ; s = -1.2000 (bw120)
  C    -1.17997893   -0.42204317   -0.01737289
  C    +0.02582808   +0.53876325   +0.04334702
  O    +1.28515978   -0.13460680   -0.07606922
  H    -2.09583388   +0.14734199   +0.03012976
  H    -1.17496922   -0.98941584   -0.94231381
  H    -1.16876619   -1.11644906   +0.81750893
  H    -0.02959424   +1.24306586   -0.79149087
  H    -0.02461203   +1.12505828   +0.96964419
  H    +1.30367989   -0.74583610   +0.70389510
  H    -3.46417819   +1.08296115   +0.11049379
 10
 * E = -152.592465 hartree ; s = -1.1000 (bw110)
  C    -1.18139818   -0.42049479   -0.01726282
  C    +0.02529520   +0.53874315   +0.04334702
  O    +1.28458086   -0.13459782   -0.07606922
  H    -2.09417915   +0.15270784   +0.03059279
  H    -1.18028585   -0.98728485   -0.94249003
  H    -1.17387223   -1.11443821   +0.81794923
  H    -0.03003504   +1.24319390   -0.79138982
  H    -0.02505178   +1.12510483   +0.96962621
  H    +1.30326400   -0.74547524   +0.70416182
  H    -3.42168787   +1.05450094   +0.10807704
 10
 * E = -152.591163 hartree ; s = -1.0000 (bw100)
  C    -1.18283912   -0.41902686   -0.01715910
  C    +0.02475015   +0.53877596   +0.04335602
  O    +1.28407814   -0.13458300   -0.07606922
  H    -2.09256780   +0.15807476   +0.03104101
  H    -1.18601315   -0.98511312   -0.94272286
  H    -1.17940002   -1.11237812   +0.81846992
  H    -0.03046314   +1.24337222   -0.79129193
  H    -0.02547194   +1.12520909   +0.96961989
  H    +1.30290519   -0.74511801   +0.70443223
  H    -3.37919287   +1.02614922   +0.10566875
 10
 * E = -152.589661 hartree ; s = -0.9000 (bw90)
  C    -1.18430495   -0.41764094   -0.01706226
  C    +0.02419292   +0.53888390   +0.04337189
  O    +1.28365427   -0.13457823   -0.07607504
  H    -2.09118717   +0.16328874   +0.03146911
  H    -1.19212989   -0.98286623   -0.94303401
  H    -1.18532521   -1.11024076   +0.81909013
  H    -0.03084204   +1.24361301   -0.79120775
  H    -0.02584290   +1.12538109   +0.96963523
  H    +1.30261522   -0.74477881   +0.70469205
  H    -3.33668616   +0.99789802   +0.10326893
 10
 * E = -152.587933 hartree ; s = -0.8000 (bw80)
  C    -1.18579775   -0.41633016   -0.01697124
  C    +0.02362882   +0.53907812   +0.04339888
  O    +1.28331506   -0.13458776   -0.07608510
  H    -2.09026323   +0.16821803   +0.03187287
  H    -1.19860012   -0.98049920   -0.94344200
  H    -1.19161606   -1.10798596   +0.81983995
  H    -0.03114896   +1.24390778   -0.79115114
  H    -0.02614188   +1.12561919   +0.96968177
  H    +1.30240885   -0.74447508   +0.70494501
  H    -3.29416411   +0.96974002   +0.10087705
 10
 * E = -152.585954 hartree ; s = -0.7000 (bw70)
  C    -1.18730803   -0.41508978   -0.01688604
  C    +0.02306419   +0.53936388   +0.04343698
  O    +1.28306212   -0.13461897   -0.07609515
  H    -2.09012987   +0.17281605   +0.03225706
  H    -1.20536990   -0.97797293   -0.94398388
  H    -1.19822017   -1.10557924   +0.82075809
  H    -0.03136910   +1.24423902   -0.79114002
  H    -0.02635091   +1.12590600   +0.96977017
  H    +1.30229399   -0.74421895   +0.70518422
  H    -3.25163416   +0.94166820   +0.09848887
 10
 * E = -152.583693 hartree ; s = -0.6000 (bw60)
  C    -1.18878284   -0.41393511   -0.01680614
  C    +0.02251384   +0.53973006   +0.04348196
  O    +1.28288801   -0.13467190   -0.07610680
  H    -2.09165599   +0.17743682   +0.03265817
  H    -1.21235876   -0.97528789   -0.94474589
  H    -1.20505611   -1.10303710   +0.82193072
  H    -0.03150298   +1.24457506   -0.79118398
  H    -0.02647209   +1.12620819   +0.96990084
  H    +1.30227918   -0.74401680   +0.70540382
  H    -3.20912903   +0.91368899   +0.09610916
 10
 * E = -152.581103 hartree ; s = -0.5000 (bw50)
  C    -1.18996079   -0.41299794   -0.01674581
  C    +0.02199419   +0.54015976   +0.04353223
  O    +1.28278323   -0.13474175   -0.07611897
  H    -2.09793893   +0.18398486   +0.03323921
  H    -1.21938621   -0.97257107   -0.94592015
  H    -1.21195394   -1.10051183   +0.82352093
  H    -0.03156701   +1.24487720   -0.79128714
  H    -0.02651707   +1.12648177   +0.97006915
  H    +1.30236384   -0.74387395   +0.70560222
  H    -3.16703616   +0.88604108   +0.09375697
 10
 * E = -152.577987 hartree ; s = -0.4000 (bw40)
  C    -1.19014707   -0.41269684   -0.01673682
  C    +0.02154386   +0.54058785   +0.04357986
  O    +1.28273508   -0.13481795   -0.07612902
  H    -2.11574785   +0.19694282   +0.03437112
  H    -1.22582792   -0.97017500   -0.94757488
  H    -1.21829612   -1.09836393   +0.82553922
  H    -0.03158818   +1.24509522   -0.79141681
  H    -0.02652077   +1.12667227   +0.97023477
  H    +1.30251997   -0.74379510   +0.70577001
  H    -3.12823478   +0.86059721   +0.09159105
 10
 * E = -152.573967 hartree ; s = -0.3000 (bw30)
  C    -1.18901516   -0.41326677   -0.01679609
  C    +0.02120678   +0.54093395   +0.04361584
  O    +1.28271391   -0.13488409   -0.07613908
  H    -2.14583316   +0.21719020   +0.03611317
  H    -1.23084029   -0.96838585   -0.94924811
  H    -1.22324603   -1.09681504   +0.82747174
  H    -0.03159823   +1.24522225   -0.79152476
  H    -0.02651707   +1.12676910   +0.97035490
  H    +1.30268295   -0.74377074   +0.70589594
  H    -3.09743718   +0.84042495   +0.08987175
 10
 * E = -152.569436 hartree ; s = -0.2000 (bw20)
  C    -1.18710589   -0.41437010   -0.01689716
  C    +0.02094695   +0.54120012   +0.04364495
  O    +1.28270386   -0.13493595   -0.07614701
  H    -2.18169712   +0.24091321   +0.03813674
  H    -1.23470697   -0.96699779   -0.95066316
  H    -1.22707677   -1.09562702   +0.82908098
  H    -0.03160881   +1.24530006   -0.79160626
  H    -0.02651707   +1.12682097   +0.97043481
  H    +1.30282475   -0.74377602   +0.70599277
  H    -3.07345116   +0.82472798   +0.08853505
 10
 * E = -152.565754 hartree ; s = -0.1000 (bw10)
  C    -1.18479126   -0.41575389   -0.01701993
  C    +0.02072523   +0.54142501   +0.04366612
  O    +1.28269380   -0.13497723   -0.07614913
  H    -2.21988198   +0.26605178   +0.04027621
  H    -1.23801591   -0.96577593   -0.95188608
  H    -1.23035608   -1.09457500   +0.83047326
  H    -0.03162098   +1.24536194   -0.79166972
  H    -0.02651707   +1.12685908   +0.97049406
  H    +1.30294915   -0.74379188   +0.70607906
  H    -3.05355095   +0.81171178   +0.08742590
 10
 * E = -152.564335 hartree ; s =  0.0000 (saddle)
  C    -1.18214602   -0.41736070   -0.01715743
  C    +0.02051502   +0.54163169   +0.04368578
  O    +1.28268892   -0.13501556   -0.07615064
  H    -2.25934921   +0.29198018   +0.04248137
  H    -1.24116038   -0.96457172   -0.95302481
  H    -1.23347198   -1.09353541   +0.83177614
  H    -0.03163222   +1.24542098   -0.79173050
  H    -0.02651613   +1.12690489   +0.97054229
  H    +1.30305853   -0.74383184   +0.70616113
  H    -3.03678567   +0.80075388   +0.08649145
 10
 * E = -152.565676 hartree ; s =  0.1000 (fw10)
  C    -1.17916505   -0.41918085   -0.01731309
  C    +0.02029395   +0.54183884   +0.04370580
  O    +1.28268323   -0.13505608   -0.07615178
  H    -2.29962320   +0.31841916   +0.04471389
  H    -1.24443110   -0.96329884   -0.95419012
  H    -1.23672578   -1.09241597   +0.83312920
  H    -0.03165591   +1.24549003   -0.79178722
  H    -0.02652818   +1.12693788   +0.97060412
  H    +1.30316500   -0.74383321   +0.70623197
  H    -3.02288618   +0.79167873   +0.08571824
 10
 * E = -152.568882 hartree ; s =  0.2000 (fw20)
  C    -1.17548727   -0.42144308   -0.01750783
  C    +0.02004100   +0.54206585   +0.04372909
  O    +1.28268905   -0.13509577   -0.07615813
  H    -2.34072809   +0.34539396   +0.04698512
  H    -1.24825814   -0.96180498   -0.95555224
  H    -1.24052578   -1.09110519   +0.83470877
  H    -0.03169507   +1.24556725   -0.79185706
  H    -0.02655411   +1.12699613   +0.97067397
  H    +1.30325973   -0.74384375   +0.70631188
  H    -3.01508081   +0.78660290   +0.08529120
 10
 * E = -152.572438 hartree ; s =  0.3000 (fw30)
  C    -1.17072202   -0.42439325   -0.01776077
  C    +0.01974783   +0.54233626   +0.04375925
  O    +1.28272027   -0.13513387   -0.07616818
  H    -2.38070900   +0.37165015   +0.04917591
  H    -1.25314611   -0.95994119   -0.95731809
  H    -1.24537675   -1.08948113   +0.83674982
  H    -0.03179985   +1.24565776   -0.79195605
  H    -0.02664196   +1.12707177   +0.97077876
  H    +1.30334175   -0.74383584   +0.70639021
  H    -3.01899409   +0.78921593   +0.08553197
 10
 * E = -152.575753 hartree ; s =  0.4000 (fw40)
  C    -1.16518895   -0.42786994   -0.01805606
  C    +0.01946896   +0.54262519   +0.04379576
  O    +1.28279594   -0.13515398   -0.07617823
  H    -2.41566220   +0.39464608   +0.05106825
  H    -1.25882687   -0.95787109   -0.95938503
  H    -1.25101197   -1.08768408   +0.83912687
  H    -0.03204009   +1.24573076   -0.79208725
  H    -0.02686897   +1.12713687   +0.97092008
  H    +1.30338197   -0.74378925   +0.70646691
  H    -3.03605213   +0.80045727   +0.08652418
 10
 * E = -152.578868 hartree ; s =  0.5000 (fw50)
  C    -1.15958179   -0.43147681   -0.01836086
  C    +0.01927422   +0.54289084   +0.04383122
  O    +1.28292718   -0.13514181   -0.07618776
  H    -2.44691809   +0.41525012   +0.05274574
  H    -1.26460705   -0.95584590   -0.96143405
  H    -1.25674402   -1.08592614   +0.84148809
  H    -0.03243486   +1.24574985   -0.79224022
  H    -0.02725898   +1.12716281   +0.97107616
  H    +1.30337986   -0.74369985   +0.70653891
  H    -3.05900094   +0.81558220   +0.08785612
 10
 * E = -152.581771 hartree ; s =  0.6000 (fw60)
  C    -1.15409898   -0.43511279   -0.01866514
  C    +0.01917315   +0.54311309   +0.04386297
  O    +1.28312403   -0.13509101   -0.07619781
  H    -2.47685206   +0.43500695   +0.05434703
  H    -1.27026978   -0.95392287   -0.96334385
  H    -1.26235488   -1.08423915   +0.84370215
  H    -0.03296880   +1.24570483   -0.79240321
  H    -0.02778974   +1.12713318   +0.97123598
  H    +1.30335182   -0.74357814   +0.70660291
  H    -3.08389976   +0.83201688   +0.08930606
 10
 * E = -152.584448 hartree ; s =  0.7000 (fw70)
  C    -1.14878604   -0.43875881   -0.01896624
  C    +0.01916415   +0.54327926   +0.04389102
  O    +1.28339814   -0.13499417   -0.07620787
  H    -2.50624305   +0.45441876   +0.05591180
  H    -1.27575103   -0.95210304   -0.96508798
  H    -1.26779322   -1.08262885   +0.84574584
  H    -0.03362022   +1.24558792   -0.79257304
  H    -0.02843481   +1.12704004   +0.97139317
  H    +1.30332114   -0.74342306   +0.70665109
  H    -3.10977603   +0.84912995   +0.09081580
 10
 * E = -152.586894 hartree ; s =  0.8000 (fw80)
  C    -1.14367578   -0.44240590   -0.01926523
  C    +0.01924512   +0.54337292   +0.04391218
  O    +1.28376275   -0.13484177   -0.07621475
  H    -2.53536210   +0.47365699   +0.05745700
  H    -1.28102211   -0.95040387   -0.96666602
  H    -1.27302203   -1.08110374   +0.84762176
  H    -0.03436212   +1.24539794   -0.79274821
  H    -0.02916401   +1.12687495   +0.97153813
  H    +1.30332008   -0.74324579   +0.70667380
  H    -3.13633491   +0.86673192   +0.09237212
 10
 * E = -152.589113 hartree ; s =  0.9000 (fw90)
  C    -1.13879518   -0.44604082   -0.01955574
  C    +0.01941075   +0.54337820   +0.04392224
  O    +1.28424007   -0.13462374   -0.07621422
  H    -2.56435891   +0.49281215   +0.05898685
  H    -1.28604982   -0.94884012   -0.96808898
  H    -1.27801590   -1.07968289   +0.84933205
  H    -0.03516277   +1.24512010   -0.79292126
  H    -0.02994508   +1.12662673   +0.97167096
  H    +1.30338624   -0.74305792   +0.70666005
  H    -3.16342719   +0.88472924   +0.09396600
 10
 * E = -152.591115 hartree ; s =  1.0000 (fw100)
  C    -1.13417282   -0.44965404   -0.01984097
  C    +0.01965100   +0.54327608   +0.04391695
  O    +1.28484386   -0.13433217   -0.07620416
  H    -2.59332978   +0.51194191   +0.06050877
  H    -1.29081403   -0.94743198   -0.96936481
  H    -1.28275412   -1.07838486   +0.85088994
  H    -0.03599993   +1.24474600   -0.79309326
  H    -0.03075525   +1.12627909   +0.97177997
  H    +1.30355607   -0.74286795   +0.70659711
  H    -3.19096399   +0.90306528   +0.09559587
 10
 * E = -152.592912 hartree ; s =  1.1000 (fw110)
  C    -1.12983620   -0.45323287   -0.02011826
  C    +0.01996109   +0.54304800   +0.04389207
  O    +1.28559423   -0.13395803   -0.07618194
  H    -2.62234082   +0.53108492   +0.06202698
  H    -1.29530303   -0.94620326   -0.97050624
  H    -1.28722619   -1.07723015   +0.85230183
  H    -0.03684820   +1.24426390   -0.79326415
  H    -0.03156595   +1.12581712   +0.97185882
  H    +1.30387414   -0.74268699   +0.70647382
  H    -3.21887599   +0.92170025   +0.09725483
 10
 * E = -152.594519 hartree ; s =  1.2000 (fw120)
  C    -1.12580917   -0.45676090   -0.02038496
  C    +0.02032887   +0.54267176   +0.04384604
  O    +1.28650918   -0.13349289   -0.07614595
  H    -2.65143183   +0.55026809   +0.06353725
  H    -1.29950791   -0.94517296   -0.97151593
  H    -1.29142206   -1.07623427   +0.85357820
  H    -0.03768218   +1.24365481   -0.79343615
  H    -0.03235813   +1.12522812   +0.97190484
  H    +1.30438903   -0.74252611   +0.70627588
  H    -3.24710810   +0.94060294   +0.09894185
 10
 * E = -152.595952 hartree ; s =  1.3000 (fw130)
  C    -1.12212398   -0.46022594   -0.02063897
  C    +0.02074904   +0.54212723   +0.04377407
  O    +1.28760774   -0.13291979   -0.07609304
  H    -2.68062283   +0.56949576   +0.06504382
  H    -1.30343120   -0.94436488   -0.97240597
  H    -1.29534219   -1.07541507   +0.85472916
  H    -0.03848388   +1.24290182   -0.79361026
  H    -0.03311591   +1.12448784   +0.97191227
  H    +1.30514523   -0.74239222   +0.70599013
  H    -3.27560905   +0.95974279   +0.10065374
 10
 * E = -152.597227 hartree ; s =  1.4000 (fw140)
  C    -1.11880075   -0.46360897   -0.02087975
  C    +0.02121419   +0.54139486   +0.04367987
  O    +1.28890794   -0.13223186   -0.07602107
  H    -2.70991277   +0.58876680   +0.06654298
  H    -1.30708308   -0.94379127   -0.97318121
  H    -1.29899513   -1.07478379   +0.85575789
  H    -0.03924114   +1.24198580   -0.79378911
  H    -0.03383877   +1.12358873   +0.97187891
  H    +1.30618824   -0.74229276   +0.70560386
  H    -3.30432485   +0.97908684   +0.10238785
 10
 * E = -152.598360 hartree ; s =  1.5000 (fw150)
  C    -1.11585799   -0.46689411   -0.02110676
  C    +0.02171796   +0.54045397   +0.04355711
  O    +1.29042404   -0.13142275   -0.07593217
  H    -2.73928689   +0.60806694   +0.06803420
  H    -1.31048516   -0.94346583   -0.97384480
  H    -1.30239984   -1.07434402   +0.85667702
  H    -0.03994812   +1.24089092   -0.79396901
  H    -0.03452511   +1.12251082   +0.97179689
  H    +1.30755401   -0.74223082   +0.70511221
  H    -3.33319784   +0.99860025   +0.10414313
