 10
 * E = -152.594365 hartree ; s = -1.7000 (bw170)
  C    -1.253091   -0.086377   -0.239847
  C    +0.121614   -0.607728   +0.233280
  O    +1.192477   +0.316049   -0.007756
  H    -1.484715   +0.850107   +0.245756
  H    -2.030357   -0.803319   +0.004077
  H    -1.257894   +0.074889   -1.313882
  H    +0.094203   -0.772568   +1.314082
  H    +0.322760   -1.576932   -0.240355
  H    +1.188957   +0.434788   -0.991826
  H    -1.738041   +2.305539   +1.087452
 10
 * E = -152.593652 hartree ; s = -1.6000 (bw160)
  C    -1.253303   -0.083270   -0.237747
  C    +0.120878   -0.606808   +0.233404
  O    +1.192664   +0.315932   -0.007774
  H    -1.482009   +0.852436   +0.249739
  H    -2.031873   -0.798661   +0.006353
  H    -1.259392   +0.080380   -1.311366
  H    +0.094187   -0.772379   +1.314111
  H    +0.320536   -1.575894   -0.241074
  H    +1.188740   +0.435151   -0.991785
  H    -1.732371   +2.275243   +1.070255
 10
 * E = -152.592857 hartree ; s = -1.5000 (bw150)
  C    -1.253504   -0.080205   -0.235673
  C    +0.120127   -0.605891   +0.233524
  O    +1.192837   +0.315835   -0.007789
  H    -1.479047   +0.854727   +0.253804
  H    -2.033507   -0.793856   +0.008706
  H    -1.260977   +0.086004   -1.308836
  H    +0.094104   -0.772113   +1.314149
  H    +0.318375   -1.574883   -0.241708
  H    +1.188562   +0.435481   -0.991748
  H    -1.726656   +2.244943   +1.053092
 10
 * E = -152.591970 hartree ; s = -1.4000 (bw140)
  C    -1.253705   -0.077185   -0.233632
  C    +0.119367   -0.604975   +0.233644
  O    +1.193007   +0.315757   -0.007800
  H    -1.475838   +0.856982   +0.257956
  H    -2.035285   -0.788892   +0.011135
  H    -1.262665   +0.091778   -1.306297
  H    +0.093965   -0.771776   +1.314195
  H    +0.316286   -1.573892   -0.242263
  H    +1.188414   +0.435777   -0.991716
  H    -1.720894   +2.214643   +1.035968
 10
 * E = -152.590983 hartree ; s = -1.3000 (bw130)
  C    -1.253915   -0.074217   -0.231627
  C    +0.118603   -0.604058   +0.233770
  O    +1.193177   +0.315697   -0.007810
  H    -1.472399   +0.859218   +0.262193
  H    -2.037229   -0.783752   +0.013641
  H    -1.264464   +0.097719   -1.303744
  H    +0.093785   -0.771382   +1.314258
  H    +0.314271   -1.572915   -0.242744
  H    +1.188288   +0.436044   -0.991689
  H    -1.715083   +2.184343   +1.018881
 10
 * E = -152.589886 hartree ; s = -1.2000 (bw120)
  C    -1.254143   -0.071299   -0.229665
  C    +0.117843   -0.603138   +0.233910
  O    +1.193355   +0.315654   -0.007820
  H    -1.468774   +0.861449   +0.266504
  H    -2.039353   -0.778425   +0.016223
  H    -1.266378   +0.103846   -1.301181
  H    +0.093591   -0.770950   +1.314340
  H    +0.312332   -1.571945   -0.243164
  H    +1.188181   +0.436282   -0.991666
  H    -1.709222   +2.154043   +1.001834
 10
 * E = -152.588672 hartree ; s = -1.1000 (bw110)
  C    -1.254398   -0.068435   -0.227751
  C    +0.117100   -0.602218   +0.234070
  O    +1.193540   +0.315627   -0.007821
  H    -1.465031   +0.863706   +0.270871
  H    -2.041673   -0.772900   +0.018886
  H    -1.268413   +0.110170   -1.298607
  H    +0.093404   -0.770508   +1.314446
  H    +0.310471   -1.570975   -0.243538
  H    +1.188083   +0.436492   -0.991642
  H    -1.703308   +2.123749   +0.984826
 10
 * E = -152.587329 hartree ; s = -1.0000 (bw100)
  C    -1.254686   -0.065619   -0.225890
  C    +0.116386   -0.601304   +0.234258
  O    +1.193730   +0.315613   -0.007821
  H    -1.461267   +0.866033   +0.275263
  H    -2.044194   -0.767165   +0.021644
  H    -1.270570   +0.116719   -1.296023
  H    +0.093254   -0.770078   +1.314582
  H    +0.308687   -1.570009   -0.243875
  H    +1.187990   +0.436676   -0.991622
  H    -1.697342   +2.093459   +0.967860
 10
 * E = -152.585846 hartree ; s = -0.9000 (bw90)
  C    -1.255015   -0.062848   -0.224081
  C    +0.115723   -0.600399   +0.234479
  O    +1.193927   +0.315610   -0.007821
  H    -1.457616   +0.868491   +0.279643
  H    -2.046919   -0.761207   +0.024523
  H    -1.272844   +0.123515   -1.293425
  H    +0.093162   -0.769690   +1.314749
  H    +0.306989   -1.569051   -0.244183
  H    +1.187900   +0.436835   -0.991604
  H    -1.691323   +2.063169   +0.950932
 10
 * E = -152.584213 hartree ; s = -0.8000 (bw80)
  C    -1.255390   -0.060115   -0.222331
  C    +0.115131   -0.599515   +0.234734
  O    +1.194125   +0.315610   -0.007821
  H    -1.454247   +0.871167   +0.283967
  H    -2.049839   -0.755019   +0.027564
  H    -1.275212   +0.130593   -1.290808
  H    +0.093136   -0.769368   +1.314946
  H    +0.305386   -1.568117   -0.244460
  H    +1.187812   +0.436975   -0.991586
  H    -1.685258   +2.032879   +0.934044
 10
 * E = -152.582417 hartree ; s = -0.7000 (bw70)
  C    -1.255810   -0.057416   -0.220637
  C    +0.114629   -0.598663   +0.235022
  O    +1.194313   +0.315610   -0.007821
  H    -1.451375   +0.874202   +0.288205
  H    -2.052936   -0.748597   +0.030824
  H    -1.277637   +0.138000   -1.288172
  H    +0.093174   -0.769137   +1.315172
  H    +0.303904   -1.567225   -0.244701
  H    +1.187735   +0.437101   -0.991568
  H    -1.679149   +2.002597   +0.917194
 10
 * E = -152.580445 hartree ; s = -0.6000 (bw60)
  C    -1.256265   -0.054775   -0.219015
  C    +0.114242   -0.597857   +0.235342
  O    +1.194488   +0.315610   -0.007829
  H    -1.449295   +0.878056   +0.292481
  H    -2.056213   -0.741967   +0.034396
  H    -1.280064   +0.145794   -1.285552
  H    +0.093253   -0.769019   +1.315422
  H    +0.302572   -1.566410   -0.244888
  H    +1.187669   +0.437221   -0.991556
  H    -1.673006   +1.972343   +0.900387
 10
 * E = -152.578276 hartree ; s = -0.5000 (bw50)
  C    -1.256702   -0.052371   -0.217551
  C    +0.113985   -0.597109   +0.235684
  O    +1.194642   +0.315602   -0.007839
  H    -1.448676   +0.884985   +0.297906
  H    -2.059754   -0.735305   +0.038394
  H    -1.282397   +0.154012   -1.283139
  H    +0.093337   -0.769030   +1.315682
  H    +0.301436   -1.565733   -0.245020
  H    +1.187623   +0.437341   -0.991541
  H    -1.666868   +1.942278   +0.883711
 10
 * E = -152.575776 hartree ; s = -0.4000 (bw40)
  C    -1.256911   -0.051019   -0.216678
  C    +0.113856   -0.596464   +0.236017
  O    +1.194758   +0.315582   -0.007849
  H    -1.451274   +0.902819   +0.308687
  H    -2.063540   -0.729309   +0.042667
  H    -1.284434   +0.162178   -1.281446
  H    +0.093381   -0.769146   +1.315920
  H    +0.300540   -1.565305   -0.245127
  H    +1.187603   +0.437455   -0.991535
  H    -1.661119   +1.914234   +0.868174
 10
 * E = -152.572463 hartree ; s = -0.3000 (bw30)
  C    -1.256712   -0.051561   -0.216865
  C    +0.113817   -0.595997   +0.236275
  O    +1.194826   +0.315562   -0.007859
  H    -1.457653   +0.935457   +0.327089
  H    -2.066781   -0.725067   +0.046259
  H    -1.285865   +0.168647   -1.280674
  H    +0.093382   -0.769271   +1.316091
  H    +0.299907   -1.565164   -0.245255
  H    +1.187607   +0.437540   -0.991540
  H    -1.656760   +1.893036   +0.856441
 10
 * E = -152.568512 hartree ; s = -0.2000 (bw20)
  C    -1.256281   -0.053254   -0.217713
  C    +0.113805   -0.595663   +0.236463
  O    +1.194865   +0.315546   -0.007866
  H    -1.465617   +0.974480   +0.348781
  H    -2.069239   -0.722106   +0.048995
  H    -1.286844   +0.173435   -1.280281
  H    +0.093370   -0.769363   +1.316213
  H    +0.299429   -1.565154   -0.245393
  H    +1.187617   +0.437600   -0.991549
  H    -1.653629   +1.877833   +0.848030
 10
 * E = -152.565205 hartree ; s = -0.1000 (bw10)
  C    -1.255750   -0.055473   -0.218864
  C    +0.113804   -0.595392   +0.236618
  O    +1.194893   +0.315535   -0.007866
  H    -1.474079   +1.015538   +0.371522
  H    -2.071261   -0.719679   +0.051292
  H    -1.287620   +0.177413   -1.279967
  H    +0.093357   -0.769428   +1.316316
  H    +0.299019   -1.565185   -0.245523
  H    +1.187628   +0.437646   -0.991559
  H    -1.651144   +1.865777   +0.841362
 10
 * E = -152.563913 hartree ; s =  0.0000 (saddle)
  C    -1.255151   -0.058045   -0.220218
  C    +0.113802   -0.595145   +0.236755
  O    +1.194916   +0.315525   -0.007872
  H    -1.482748   +1.057496   +0.394729
  H    -2.073097   -0.717425   +0.053429
  H    -1.288314   +0.181097   -1.279646
  H    +0.093345   -0.769473   +1.316413
  H    +0.298651   -1.565233   -0.245634
  H    +1.187640   +0.437686   -0.991571
  H    -1.649079   +1.855757   +0.835822
 10
 * E = -152.565205 hartree ; s =  0.1000 (fw10)
  C    -1.254487   -0.060922   -0.221740
  C    +0.113792   -0.594905   +0.236891
  O    +1.194939   +0.315515   -0.007876
  H    -1.491539   +1.099883   +0.418162
  H    -2.074943   -0.715114   +0.055602
  H    -1.289015   +0.184865   -1.279285
  H    +0.093328   -0.769502   +1.316517
  H    +0.298317   -1.565287   -0.245713
  H    +1.187657   +0.437719   -0.991581
  H    -1.647332   +1.847281   +0.831134
 10
 * E = -152.568414 hartree ; s =  0.2000 (fw20)
  C    -1.253699   -0.064390   -0.223585
  C    +0.113781   -0.594656   +0.237033
  O    +1.194966   +0.315509   -0.007880
  H    -1.500400   +1.142621   +0.441783
  H    -2.077012   -0.712515   +0.058047
  H    -1.289791   +0.189100   -1.278877
  H    +0.093297   -0.769508   +1.316635
  H    +0.298058   -1.565348   -0.245719
  H    +1.187670   +0.437756   -0.991589
  H    -1.646190   +1.841697   +0.828046
 10
 * E = -152.572029 hartree ; s =  0.3000 (fw30)
  C    -1.252672   -0.068986   -0.226044
  C    +0.113775   -0.594388   +0.237197
  O    +1.195001   +0.315510   -0.007890
  H    -1.509060   +1.184483   +0.464919
  H    -2.079698   -0.709214   +0.061162
  H    -1.290793   +0.194521   -1.278392
  H    +0.093206   -0.769451   +1.316784
  H    +0.297987   -1.565430   -0.245553
  H    +1.187685   +0.437798   -0.991597
  H    -1.646303   +1.842126   +0.828283
 10
 * E = -152.575110 hartree ; s =  0.4000 (fw40)
  C    -1.251358   -0.075081   -0.229337
  C    +0.113805   -0.594144   +0.237375
  O    +1.195050   +0.315528   -0.007904
  H    -1.516375   +1.220124   +0.484639
  H    -2.083252   -0.705026   +0.065096
  H    -1.292132   +0.201467   -1.277866
  H    +0.092935   -0.769230   +1.316973
  H    +0.298443   -1.565593   -0.244988
  H    +1.187695   +0.437850   -0.991605
  H    -1.648672   +1.853345   +0.834485
 10
 * E = -152.577862 hartree ; s =  0.5000 (fw50)
  C    -1.250026   -0.081668   -0.232954
  C    +0.113922   -0.594053   +0.237519
  O    +1.195095   +0.315576   -0.007922
  H    -1.521984   +1.247904   +0.500053
  H    -2.087037   -0.700745   +0.069021
  H    -1.293612   +0.208582   -1.277404
  H    +0.092390   -0.768757   +1.317177
  H    +0.299726   -1.565934   -0.243911
  H    +1.187703   +0.437901   -0.991617
  H    -1.652588   +1.871948   +0.844771
 10
 * E = -152.580421 hartree ; s =  0.6000 (fw60)
  C    -1.248820   -0.088150   -0.236590
  C    +0.114144   -0.594160   +0.237610
  O    +1.195125   +0.315653   -0.007940
  H    -1.526962   +1.272930   +0.513980
  H    -2.090635   -0.696784   +0.072507
  H    -1.295086   +0.215123   -1.277023
  H    +0.091584   -0.768022   +1.317392
  H    +0.301827   -1.566532   -0.242364
  H    +1.187703   +0.437950   -0.991636
  H    -1.656954   +1.892706   +0.856253
 10
 * E = -152.582795 hartree ; s =  0.7000 (fw70)
  C    -1.247751   -0.094458   -0.240208
  C    +0.114469   -0.594464   +0.237652
  O    +1.195137   +0.315762   -0.007956
  H    -1.531739   +1.297231   +0.527530
  H    -2.093978   -0.693189   +0.075534
  H    -1.296517   +0.221019   -1.276717
  H    +0.090560   -0.767033   +1.317623
  H    +0.304655   -1.567415   -0.240383
  H    +1.187706   +0.437988   -0.991662
  H    -1.661481   +1.914232   +0.868166
 10
 * E = -152.584990 hartree ; s =  0.8000 (fw80)
  C    -1.246809   -0.100583   -0.243805
  C    +0.114894   -0.594959   +0.237647
  O    +1.195124   +0.315904   -0.007970
  H    -1.536408   +1.321221   +0.540928
  H    -2.097062   -0.689963   +0.078136
  H    -1.297888   +0.226296   -1.276501
  H    +0.089358   -0.765804   +1.317873
  H    +0.308107   -1.568579   -0.237994
  H    +1.187716   +0.438011   -0.991694
  H    -1.666108   +1.936230   +0.880350
 10
 * E = -152.587011 hartree ; s =  0.9000 (fw90)
  C    -1.245974   -0.106526   -0.247377
  C    +0.115418   -0.595638   +0.237600
  O    +1.195077   +0.316081   -0.007986
  H    -1.541003   +1.345027   +0.554237
  H    -2.099891   -0.687109   +0.080343
  H    -1.299176   +0.230976   -1.276390
  H    +0.088019   -0.764357   +1.318138
  H    +0.312074   -1.570016   -0.235236
  H    +1.187737   +0.438018   -0.991735
  H    -1.670811   +1.958581   +0.892739
 10
 * E = -152.588866 hartree ; s =  1.0000 (fw100)
  C    -1.245225   -0.112292   -0.250923
  C    +0.116029   -0.596488   +0.237517
  O    +1.194992   +0.316293   -0.008001
  H    -1.545541   +1.368722   +0.567492
  H    -2.102468   -0.684622   +0.082180
  H    -1.300368   +0.235086   -1.276403
  H    +0.086590   -0.762720   +1.318414
  H    +0.316445   -1.571704   -0.232152
  H    +1.187771   +0.437998   -0.991785
  H    -1.675571   +1.981213   +0.905292
 10
 * E = -152.590566 hartree ; s =  1.1000 (fw110)
  C    -1.244544   -0.117892   -0.254438
  C    +0.116717   -0.597497   +0.237406
  O    +1.194860   +0.316540   -0.008019
  H    -1.550032   +1.392351   +0.580715
  H    -2.104801   -0.682500   +0.083670
  H    -1.301440   +0.238645   -1.276548
  H    +0.085100   -0.760928   +1.318701
  H    +0.321109   -1.573613   -0.228796
  H    +1.187823   +0.437946   -0.991847
  H    -1.680383   +2.004067   +0.917982
 10
 * E = -152.592119 hartree ; s =  1.2000 (fw120)
  C    -1.243903   -0.123331   -0.257919
  C    +0.117474   -0.598647   +0.237271
  O    +1.194677   +0.316816   -0.008039
  H    -1.554484   +1.415950   +0.593920
  H    -2.106892   -0.680740   +0.084830
  H    -1.302372   +0.241670   -1.276835
  H    +0.083587   -0.759020   +1.318990
  H    +0.325964   -1.575714   -0.225223
  H    +1.187896   +0.437856   -0.991925
  H    -1.685237   +2.027107   +0.930787
 10
 * E = -152.593535 hartree ; s =  1.3000 (fw130)
  C    -1.243281   -0.128623   -0.261366
  C    +0.118286   -0.599920   +0.237122
  O    +1.194430   +0.317121   -0.008066
  H    -1.558905   +1.439544   +0.607118
  H    -2.108743   -0.679332   +0.085673
  H    -1.303137   +0.244172   -1.277272
  H    +0.082080   -0.757046   +1.319280
  H    +0.330921   -1.577967   -0.221497
  H    +1.187995   +0.437714   -0.992015
  H    -1.690132   +2.050304   +0.943687
 10
 * E = -152.594824 hartree ; s =  1.4000 (fw140)
  C    -1.242650   -0.133778   -0.264773
  C    +0.119141   -0.601296   +0.236963
  O    +1.194115   +0.317453   -0.008098
  H    -1.563298   +1.463153   +0.620316
  H    -2.110357   -0.678271   +0.086208
  H    -1.303711   +0.246166   -1.277865
  H    +0.080602   -0.755053   +1.319562
  H    +0.335903   -1.580332   -0.217684
  H    +1.188118   +0.437509   -0.992124
  H    -1.695065   +2.073633   +0.956672
 10
 * E = -152.595994 hartree ; s =  1.5000 (fw150)
  C    -1.241992   -0.138806   -0.268134
  C    +0.120030   -0.602761   +0.236803
  O    +1.193726   +0.317809   -0.008140
  H    -1.567668   +1.486795   +0.633517
  H    -2.111738   -0.677552   +0.086443
  H    -1.304061   +0.247652   -1.278620
  H    +0.079173   -0.753094   +1.319837
  H    +0.340853   -1.582771   -0.213847
  H    +1.188266   +0.437222   -0.992254
  H    -1.700037   +2.097078   +0.969734
 10
 * E = -152.597055 hartree ; s =  1.6000 (fw160)
  C    -1.241292   -0.143717   -0.271450
  C    +0.120940   -0.604294   +0.236644
  O    +1.193260   +0.318187   -0.008193
  H    -1.572013   +1.510484   +0.646725
  H    -2.112889   -0.677168   +0.086382
  H    -1.304161   +0.248644   -1.279537
  H    +0.077809   -0.751217   +1.320096
  H    +0.345726   -1.585246   -0.210046
  H    +1.188437   +0.436837   -0.992409
  H    -1.705045   +2.120625   +0.982866
