 10
 * E = -152.594365 hartree ; s = -1.7000 (bw170)
  C    -1.25309111   -0.08637707   -0.23984692
  C    +0.12161392   -0.60772775   +0.23327983
  O    +1.19247703   +0.31604898   -0.00775615
  H    -1.48471513   +0.85010680   +0.24575625
  H    -2.03035718   -0.80331905   +0.00407678
  H    -1.25789393   +0.07488916   -1.31388191
  H    +0.09420307   -0.77256804   +1.31408195
  H    +0.32276000   -1.57693221   -0.24035493
  H    +1.18895696   +0.43478786   -0.99182628
  H    -1.73804073   +2.30553886   +1.08745176
 10
 * E = -152.593652 hartree ; s = -1.6000 (bw160)
  C    -1.25330278   -0.08326974   -0.23774715
  C    +0.12087783   -0.60680804   +0.23340419
  O    +1.19266383   +0.31593202   -0.00777414
  H    -1.48200895   +0.85243625   +0.24973883
  H    -2.03187327   -0.79866121   +0.00635277
  H    -1.25939200   +0.08037990   -1.31136624
  H    +0.09418719   -0.77237912   +1.31411105
  H    +0.32053587   -1.57589399   -0.24107409
  H    +1.18873998   +0.43515089   -0.99178500
  H    -1.73237113   +2.27524293   +1.07025510
 10
 * E = -152.592857 hartree ; s = -1.5000 (bw150)
  C    -1.25350387   -0.08020474   -0.23567277
  C    +0.12012693   -0.60589097   +0.23352379
  O    +1.19283687   +0.31583518   -0.00778896
  H    -1.47904713   +0.85472705   +0.25380398
  H    -2.03350682   -0.79385579   +0.00870602
  H    -1.26097689   +0.08600400   -1.30883622
  H    +0.09410411   -0.77211292   +1.31414916
  H    +0.31837524   -1.57488324   -0.24170804
  H    +1.18856219   +0.43548111   -0.99174794
  H    -1.72665604   +2.24494278   +1.05309174
 10
 * E = -152.591970 hartree ; s = -1.4000 (bw140)
  C    -1.25370495   -0.07718526   -0.23363174
  C    +0.11936703   -0.60497496   +0.23364390
  O    +1.19300727   +0.31575686   -0.00780007
  H    -1.47583818   +0.85698186   +0.25795590
  H    -2.03528489   -0.78889212   +0.01113495
  H    -1.26266499   +0.09177785   -1.30629725
  H    +0.09396494   -0.77177583   +1.31419518
  H    +0.31628604   -1.57389210   -0.24226315
  H    +1.18841402   +0.43577691   -0.99171621
  H    -1.72089382   +2.21464316   +1.03596813
 10
 * E = -152.590983 hartree ; s = -1.3000 (bw130)
  C    -1.25391504   -0.07421710   -0.23162721
  C    +0.11860290   -0.60405791   +0.23376985
  O    +1.19317713   +0.31569707   -0.00781013
  H    -1.47239905   +0.85921816   +0.26219302
  H    -2.03722907   -0.78375218   +0.01364113
  H    -1.26446420   +0.09771892   -1.30374394
  H    +0.09378502   -0.77138213   +1.31425817
  H    +0.31427094   -1.57291524   -0.24274417
  H    +1.18828806   +0.43604414   -0.99168921
  H    -1.71508293   +2.18434297   +1.01888098
 10
 * E = -152.589886 hartree ; s = -1.2000 (bw120)
  C    -1.25414311   -0.07129922   -0.22966503
  C    +0.11784300   -0.60313819   +0.23391009
  O    +1.19335494   +0.31565420   -0.00782018
  H    -1.46877421   +0.86144919   +0.26650422
  H    -2.03935320   -0.77842496   +0.01622299
  H    -1.26637822   +0.10384627   -1.30118114
  H    +0.09359081   -0.77094984   +1.31434019
  H    +0.31233203   -1.57194524   -0.24316381
  H    +1.18818116   +0.43628174   -0.99166591
  H    -1.70922175   +2.15404283   +1.00183407
 10
 * E = -152.588672 hartree ; s = -1.1000 (bw110)
  C    -1.25439817   -0.06843478   -0.22775099
  C    +0.11710004   -0.60221796   +0.23406989
  O    +1.19354014   +0.31562722   -0.00782124
  H    -1.46503082   +0.86370610   +0.27087100
  H    -2.04167310   -0.77289981   +0.01888581
  H    -1.26841290   +0.11016993   -1.29860722
  H    +0.09340401   -0.77050795   +1.31444603
  H    +0.31047092   -1.57097529   -0.24353793
  H    +1.18808276   +0.43649181   -0.99164212
  H    -1.70330821   +2.12374902   +0.98482578
 10
 * E = -152.587329 hartree ; s = -1.0000 (bw100)
  C    -1.25468605   -0.06561903   -0.22588988
  C    +0.11638618   -0.60130407   +0.23425776
  O    +1.19373012   +0.31561293   -0.00782124
  H    -1.46126677   +0.86603291   +0.27526317
  H    -2.04419410   -0.76716512   +0.02164388
  H    -1.27056982   +0.11671903   -1.29602323
  H    +0.09325426   -0.77007825   +1.31458203
  H    +0.30868706   -1.57000897   -0.24387502
  H    +1.18799013   +0.43667598   -0.99162198
  H    -1.69734225   +2.09345891   +0.96785982
 10
 * E = -152.585846 hartree ; s = -0.9000 (bw90)
  C    -1.25501519   -0.06284826   -0.22408115
  C    +0.11572312   -0.60039918   +0.23447895
  O    +1.19392698   +0.31560976   -0.00782124
  H    -1.45761600   +0.86849092   +0.27964317
  H    -2.04691883   -0.76120715   +0.02452313
  H    -1.27284423   +0.12351525   -1.29342501
  H    +0.09316218   -0.76968986   +1.31474923
  H    +0.30698893   -1.56905120   -0.24418300
  H    +1.18790016   +0.43683527   -0.99160401
  H    -1.69132286   +2.06316883   +0.95093197
 10
 * E = -152.584213 hartree ; s = -0.8000 (bw80)
  C    -1.25538985   -0.06011506   -0.22233116
  C    +0.11513097   -0.59951491   +0.23473402
  O    +1.19412488   +0.31560976   -0.00782124
  H    -1.45424724   +0.87116700   +0.28396707
  H    -2.04983886   -0.75501893   +0.02756378
  H    -1.27521179   +0.13059300   -1.29080823
  H    +0.09313625   -0.76936811   +1.31494611
  H    +0.30538605   -1.56811720   -0.24445976
  H    +1.18781179   +0.43697495   -0.99158600
  H    -1.68525798   +2.03287923   +0.93404382
 10
 * E = -152.582417 hartree ; s = -0.7000 (bw70)
  C    -1.25581002   -0.05741626   -0.22063727
  C    +0.11462878   -0.59866294   +0.23502189
  O    +1.19431274   +0.31560976   -0.00782124
  H    -1.45137486   +0.87420183   +0.28820526
  H    -2.05293610   -0.74859683   +0.03082404
  H    -1.27763701   +0.13799989   -1.28817185
  H    +0.09317382   -0.76913686   +1.31517203
  H    +0.30390383   -1.56722500   -0.24470106
  H    +1.18773509   +0.43710090   -0.99156803
  H    -1.67914913   +2.00259706   +0.91719375
 10
 * E = -152.580445 hartree ; s = -0.6000 (bw60)
  C    -1.25626510   -0.05477513   -0.21901480
  C    +0.11424195   -0.59785700   +0.23534203
  O    +1.19448790   +0.31560976   -0.00782918
  H    -1.44929522   +0.87805581   +0.29248101
  H    -2.05621278   -0.74196679   +0.03439599
  H    -1.28006381   +0.14579414   -1.28555191
  H    +0.09325320   -0.76901884   +1.31542184
  H    +0.30257189   -1.56641007   -0.24488787
  H    +1.18766894   +0.43722104   -0.99155584
  H    -1.67300591   +1.97234296   +0.90038708
 10
 * E = -152.578276 hartree ; s = -0.5000 (bw50)
  C    -1.25670221   -0.05237108   -0.21755109
  C    +0.11398477   -0.59710875   +0.23568388
  O    +1.19464189   +0.31560182   -0.00783923
  H    -1.44867607   +0.88498484   +0.29790613
  H    -2.05975401   -0.73530495   +0.03839392
  H    -1.28239694   +0.15401227   -1.28313886
  H    +0.09333681   -0.76902996   +1.31568218
  H    +0.30143574   -1.56573325   -0.24502016
  H    +1.18762289   +0.43734114   -0.99154103
  H    -1.66686801   +1.94227776   +0.88371114
 10
 * E = -152.575776 hartree ; s = -0.4000 (bw40)
  C    -1.25691123   -0.05101903   -0.21667796
  C    +0.11385618   -0.59646421   +0.23601674
  O    +1.19475779   +0.31558223   -0.00784876
  H    -1.45127381   +0.90281917   +0.30868706
  H    -2.06353978   -0.72930887   +0.04266703
  H    -1.28443373   +0.16217800   -1.28144602
  H    +0.09338125   -0.76914583   +1.31591981
  H    +0.30053985   -1.56530512   -0.24512706
  H    +1.18760279   +0.43745491   -0.99153522
  H    -1.66111903   +1.91423402   +0.86817395
 10
 * E = -152.572463 hartree ; s = -0.3000 (bw30)
  C    -1.25671226   -0.05156091   -0.21686476
  C    +0.11381702   -0.59599695   +0.23627499
  O    +1.19482605   +0.31556213   -0.00785881
  H    -1.45765301   +0.93545726   +0.32708920
  H    -2.06678098   -0.72506699   +0.04625908
  H    -1.28586517   +0.16864719   -1.28067395
  H    +0.09338179   -0.76927128   +1.31609122
  H    +0.29990695   -1.56516385   -0.24525511
  H    +1.18760701   +0.43754011   -0.99153999
  H    -1.65676018   +1.89303621   +0.85644103
 10
 * E = -152.568512 hartree ; s = -0.2000 (bw20)
  C    -1.25628099   -0.05325375   -0.21771304
  C    +0.11380485   -0.59566303   +0.23646284
  O    +1.19486521   +0.31554626   -0.00786622
  H    -1.46561714   +0.97447982   +0.34878123
  H    -2.06923899   -0.72210621   +0.04899493
  H    -1.28684414   +0.17343518   -1.28028077
  H    +0.09337014   -0.76936279   +1.31621294
  H    +0.29942910   -1.56515379   -0.24539323
  H    +1.18761707   +0.43759992   -0.99154897
  H    -1.65362902   +1.87783297   +0.84802977
 10
 * E = -152.565205 hartree ; s = -0.1000 (bw10)
  C    -1.25575023   -0.05547312   -0.21886399
  C    +0.11380379   -0.59539209   +0.23661789
  O    +1.19489325   +0.31553514   -0.00786622
  H    -1.47407919   +1.01553816   +0.37152209
  H    -2.07126097   -0.71967888   +0.05129209
  H    -1.28761990   +0.17741301   -1.27996698
  H    +0.09335691   -0.76942789   +1.31631615
  H    +0.29901899   -1.56518499   -0.24552288
  H    +1.18762819   +0.43764597   -0.99155904
  H    -1.65114401   +1.86577725   +0.84136213
 10
 * E = -152.563913 hartree ; s =  0.0000 (saddle)
  C    -1.25515108   -0.05804490   -0.22021826
  C    +0.11380178   -0.59514548   +0.23675537
  O    +1.19491612   +0.31552458   -0.00787214
  H    -1.48274808   +1.05749561   +0.39472905
  H    -2.07309713   -0.71742508   +0.05342880
  H    -1.28831412   +0.18109663   -1.27964586
  H    +0.09334538   -0.76947338   +1.31641340
  H    +0.29865132   -1.56523312   -0.24563411
  H    +1.18764045   +0.43768568   -0.99157131
  H    -1.64907852   +1.85575731   +0.83582207
 10
 * E = -152.565205 hartree ; s =  0.1000 (fw10)
  C    -1.25448708   -0.06092206   -0.22174007
  C    +0.11379215   -0.59490525   +0.23689095
  O    +1.19493877   +0.31551503   -0.00787574
  H    -1.49153889   +1.09988319   +0.41816218
  H    -2.07494300   -0.71511419   +0.05560224
  H    -1.28901481   +0.18486488   -1.27928483
  H    +0.09332781   -0.76950200   +1.31651724
  H    +0.29831677   -1.56528715   -0.24571285
  H    +1.18765675   +0.43771898   -0.99158127
  H    -1.64733184   +1.84728091   +0.83113420
 10
 * E = -152.568414 hartree ; s =  0.2000 (fw20)
  C    -1.25369913   -0.06438975   -0.22358478
  C    +0.11378104   -0.59465602   +0.23703275
  O    +1.19496575   +0.31550921   -0.00787998
  H    -1.50039997   +1.14262115   +0.44178306
  H    -2.07701210   -0.71251491   +0.05804704
  H    -1.28979116   +0.18909989   -1.27887684
  H    +0.09329712   -0.76950780   +1.31663521
  H    +0.29805800   -1.56534798   -0.24571921
  H    +1.18766999   +0.43775604   -0.99158921
  H    -1.64618988   +1.84169703   +0.82804592
 10
 * E = -152.572029 hartree ; s =  0.3000 (fw30)
  C    -1.25267200   -0.06898619   -0.22604386
  C    +0.11377522   -0.59438824   +0.23719680
  O    +1.19500121   +0.31550974   -0.00789003
  H    -1.50905996   +1.18448277   +0.46491922
  H    -2.07969819   -0.70921389   +0.06116177
  H    -1.29079284   +0.19452078   -1.27839210
  H    +0.09320610   -0.76945119   +1.31678391
  H    +0.29798710   -1.56543000   -0.24555304
  H    +1.18768479   +0.43779784   -0.99159711
  H    -1.64630312   +1.84212621   +0.82828300
 10
 * E = -152.575110 hartree ; s =  0.4000 (fw40)
  C    -1.25135805   -0.07508125   -0.22933693
  C    +0.11380485   -0.59414377   +0.23737514
  O    +1.19504989   +0.31552826   -0.00790379
  H    -1.51637479   +1.22012391   +0.48463901
  H    -2.08325213   -0.70502598   +0.06509620
  H    -1.29213220   +0.20146676   -1.27786614
  H    +0.09293516   -0.76923001   +1.31697283
  H    +0.29844325   -1.56559298   -0.24498788
  H    +1.18769486   +0.43785023   -0.99160505
  H    -1.64867224   +1.85334475   +0.83448495
 10
 * E = -152.577862 hartree ; s =  0.5000 (fw50)
  C    -1.25002611   -0.08166792   -0.23295386
  C    +0.11392180   -0.59405275   +0.23751908
  O    +1.19509487   +0.31557588   -0.00792178
  H    -1.52198402   +1.24790413   +0.50005288
  H    -2.08703679   -0.70074493   +0.06902111
  H    -1.29361182   +0.20858208   -1.27740418
  H    +0.09239011   -0.76875692   +1.31717709
  H    +0.29972597   -1.56593382   -0.24391100
  H    +1.18770280   +0.43790101   -0.99161725
  H    -1.65258815   +1.87194800   +0.84477108
 10
 * E = -152.580421 hartree ; s =  0.6000 (fw60)
  C    -1.24882012   -0.08814981   -0.23658984
  C    +0.11414405   -0.59416017   +0.23761010
  O    +1.19512503   +0.31565314   -0.00793977
  H    -1.52696202   +1.27292994   +0.51397977
  H    -2.09063522   -0.69678405   +0.07250680
  H    -1.29508606   +0.21512324   -1.27702312
  H    +0.09158417   -0.76802185   +1.31739194
  H    +0.30182680   -1.56653178   -0.24236422
  H    +1.18770280   +0.43795023   -0.99163574
  H    -1.65695385   +1.89270600   +0.85625317
 10
 * E = -152.582795 hartree ; s =  0.7000 (fw70)
  C    -1.24775118   -0.09445813   -0.24020783
  C    +0.11446897   -0.59446392   +0.23765189
  O    +1.19513720   +0.31576216   -0.00795618
  H    -1.53173888   +1.29723086   +0.52752987
  H    -2.09397805   -0.69318879   +0.07553423
  H    -1.29651698   +0.22101880   -1.27671676
  H    +0.09056021   -0.76703282   +1.31762319
  H    +0.30465526   -1.56741497   -0.24038298
  H    +1.18770597   +0.43798782   -0.99166222
  H    -1.66148097   +1.91423189   +0.86816600
 10
 * E = -152.584990 hartree ; s =  0.8000 (fw80)
  C    -1.24680924   -0.10058283   -0.24380517
  C    +0.11489390   -0.59495923   +0.23764714
  O    +1.19512397   +0.31590397   -0.00796994
  H    -1.53640783   +1.32122109   +0.54092813
  H    -2.09706207   -0.68996292   +0.07813619
  H    -1.29788807   +0.22629576   -1.27650085
  H    +0.08935792   -0.76580410   +1.31787299
  H    +0.30810708   -1.56857916   -0.23799375
  H    +1.18771604   +0.43801108   -0.99169398
  H    -1.66610810   +1.93622977   +0.88034980
 10
 * E = -152.587011 hartree ; s =  0.9000 (fw90)
  C    -1.24597421   -0.10652602   -0.24737712
  C    +0.11541778   -0.59563816   +0.23760004
  O    +1.19507688   +0.31608125   -0.00798581
  H    -1.54100320   +1.34502720   +0.55423693
  H    -2.09989106   -0.68710910   +0.08034286
  H    -1.29917609   +0.23097580   -1.27639026
  H    +0.08801911   -0.76435679   +1.31813808
  H    +0.31207379   -1.57001588   -0.23523620
  H    +1.18773718   +0.43801798   -0.99173526
  H    -1.67081088   +1.95858117   +0.89273890
 10
 * E = -152.588866 hartree ; s =  1.0000 (fw100)
  C    -1.24522489   -0.11229193   -0.25092313
  C    +0.11602898   -0.59648803   +0.23751696
  O    +1.19499221   +0.31629293   -0.00800116
  H    -1.54554091   +1.36872215   +0.56749176
  H    -2.10246814   -0.68462194   +0.08218016
  H    -1.30036780   +0.23508592   -1.27640297
  H    +0.08658980   -0.76272004   +1.31841382
  H    +0.31644480   -1.57170392   -0.23215216
  H    +1.18777107   +0.43799785   -0.99178500
  H    -1.67557086   +1.98121300   +0.90529203
 10
 * E = -152.590566 hartree ; s =  1.1000 (fw110)
  C    -1.24454384   -0.11789222   -0.25443793
  C    +0.11671691   -0.59749716   +0.23740582
  O    +1.19485992   +0.31654005   -0.00801915
  H    -1.55003201   +1.39235099   +0.58071485
  H    -2.10480075   -0.68249997   +0.08366980
  H    -1.30143990   +0.23864516   -1.27654793
  H    +0.08510016   -0.76092825   +1.31870115
  H    +0.32110896   -1.57361320   -0.22879612
  H    +1.18782290   +0.43794602   -0.99184690
  H    -1.68038319   +2.00406711   +0.91798223
 10
 * E = -152.592119 hartree ; s =  1.2000 (fw120)
  C    -1.24390301   -0.12333110   -0.25791886
  C    +0.11747417   -0.59864706   +0.23727089
  O    +1.19467682   +0.31681576   -0.00803926
  H    -1.55448400   +1.41595015   +0.59391991
  H    -2.10689209   -0.68073992   +0.08482975
  H    -1.30237180   +0.24166994   -1.27683478
  H    +0.08358724   -0.75902003   +1.31899006
  H    +0.32596417   -1.57571403   -0.22522311
  H    +1.18789595   +0.43785604   -0.99192520
  H    -1.68523680   +2.02710698   +0.93078727
 10
 * E = -152.593535 hartree ; s =  1.3000 (fw130)
  C    -1.24328121   -0.12862287   -0.26136591
  C    +0.11828592   -0.59992026   +0.23712219
  O    +1.19443023   +0.31712109   -0.00806625
  H    -1.55890527   +1.43954405   +0.60711813
  H    -2.10874313   -0.67933178   +0.08567326
  H    -1.30313696   +0.24417189   -1.27727187
  H    +0.08208015   -0.75704623   +1.31928008
  H    +0.33092097   -1.57796673   -0.22149718
  H    +1.18799491   +0.43771424   -0.99201518
  H    -1.69013220   +2.05030398   +0.94368702
 10
 * E = -152.594824 hartree ; s =  1.4000 (fw140)
  C    -1.24264991   -0.13377811   -0.26477276
  C    +0.11914107   -0.60129613   +0.23696291
  O    +1.19411484   +0.31745288   -0.00809800
  H    -1.56329796   +1.46315275   +0.62031581
  H    -2.11035711   -0.67827079   +0.08620826
  H    -1.30371115   +0.24616583   -1.27786509
  H    +0.08060216   -0.75505278   +1.31956209
  H    +0.33590317   -1.58033217   -0.21768392
  H    +1.18811822   +0.43750890   -0.99212421
  H    -1.69506520   +2.07363275   +0.95667197
 10
 * E = -152.595994 hartree ; s =  1.5000 (fw150)
  C    -1.24199214   -0.13880583   -0.26813409
  C    +0.12003009   -0.60276088   +0.23680309
  O    +1.19372589   +0.31780902   -0.00813980
  H    -1.56766793   +1.48679482   +0.63351719
  H    -2.11173774   -0.67755217   +0.08644322
  H    -1.30406095   +0.24765176   -1.27862019
  H    +0.07917285   -0.75309379   +1.31983677
  H    +0.34085309   -1.58277115   -0.21384686
  H    +1.18826584   +0.43722209   -0.99225385
  H    -1.70003682   +2.09707797   +0.96973418
 10
 * E = -152.597055 hartree ; s =  1.6000 (fw160)
  C    -1.24129204   -0.14371712   -0.27144991
  C    +0.12093975   -0.60429391   +0.23664381
  O    +1.19326022   +0.31818685   -0.00819325
  H    -1.57201297   +1.51048397   +0.64672494
  H    -2.11288923   -0.67716796   +0.08638183
  H    -1.30416094   +0.24864397   -1.27953727
  H    +0.07780916   -0.75121677   +1.32009606
  H    +0.34572576   -1.58524614   -0.21004578
  H    +1.18843676   +0.43683683   -0.99240889
  H    -1.70504494   +2.12062476   +0.98286623
