 10
 * E = -152.595604 hartree ; s = -1.9000 (bw190)
  C    -1.242574   -0.308919   +0.070210
  C    +0.092548   +0.372715   -0.306833
  O    +1.256652   -0.401878   +0.008894
  H    -2.072616   +0.335564   -0.202655
  H    -1.353626   -1.256479   -0.447421
  H    -1.291257   -0.491997   +1.140151
  H    +0.120308   +0.552658   -1.384841
  H    +0.135318   +1.347886   +0.184868
  H    +1.172261   -0.575808   +0.981054
  H    +0.161758   +2.899591   +1.068014
 10
 * E = -152.595076 hartree ; s = -1.8000 (bw180)
  C    -1.242674   -0.307887   +0.070510
  C    +0.092466   +0.373695   -0.305651
  O    +1.257149   -0.400049   +0.009269
  H    -2.072344   +0.337249   -0.201953
  H    -1.354236   -1.255111   -0.447588
  H    -1.291431   -0.491368   +1.140382
  H    +0.120500   +0.556817   -1.383075
  H    +0.134642   +1.347253   +0.188480
  H    +1.170957   -0.578090   +0.980519
  H    +0.161196   +2.868155   +1.050594
 10
 * E = -152.594488 hartree ; s = -1.7000 (bw170)
  C    -1.242726   -0.306845   +0.070810
  C    +0.092386   +0.374682   -0.304498
  O    +1.257569   -0.398261   +0.009641
  H    -2.072096   +0.338834   -0.201288
  H    -1.354672   -1.253776   -0.447694
  H    -1.291522   -0.490674   +1.140624
  H    +0.120734   +0.561149   -1.381296
  H    +0.134005   +1.346568   +0.192173
  H    +1.169680   -0.580156   +0.980016
  H    +0.160623   +2.836680   +1.033201
 10
 * E = -152.593836 hartree ; s = -1.6000 (bw160)
  C    -1.242729   -0.305791   +0.071116
  C    +0.092308   +0.375677   -0.303376
  O    +1.257904   -0.396516   +0.010011
  H    -2.071876   +0.340312   -0.200654
  H    -1.354921   -1.252467   -0.447752
  H    -1.291544   -0.489943   +1.140879
  H    +0.121020   +0.565634   -1.379505
  H    +0.133413   +1.345860   +0.195918
  H    +1.168436   -0.582020   +0.979549
  H    +0.160039   +2.805165   +1.015838
 10
 * E = -152.593112 hartree ; s = -1.5000 (bw150)
  C    -1.242680   -0.304727   +0.071431
  C    +0.092237   +0.376688   -0.302277
  O    +1.258152   -0.394812   +0.010378
  H    -2.071683   +0.341680   -0.200048
  H    -1.354976   -1.251175   -0.447776
  H    -1.291517   -0.489200   +1.141145
  H    +0.121367   +0.570253   -1.377700
  H    +0.132875   +1.345173   +0.199682
  H    +1.167239   -0.583697   +0.979116
  H    +0.159444   +2.773612   +0.998505
 10
 * E = -152.592313 hartree ; s = -1.4000 (bw140)
  C    -1.242585   -0.303657   +0.071758
  C    +0.092179   +0.377724   -0.301193
  O    +1.258308   -0.393154   +0.010741
  H    -2.071525   +0.342933   -0.199471
  H    -1.354846   -1.249901   -0.447775
  H    -1.291464   -0.488469   +1.141419
  H    +0.121789   +0.574981   -1.375877
  H    +0.132389   +1.344568   +0.203426
  H    +1.166103   -0.585209   +0.978718
  H    +0.158839   +2.742019   +0.981201
 10
 * E = -152.591430 hartree ; s = -1.3000 (bw130)
  C    -1.242449   -0.302588   +0.072101
  C    +0.092140   +0.378795   -0.300117
  O    +1.258375   -0.391542   +0.011095
  H    -2.071397   +0.344067   -0.198922
  H    -1.354551   -1.248647   -0.447757
  H    -1.291409   -0.487777   +1.141703
  H    +0.122301   +0.579798   -1.374035
  H    +0.131961   +1.344112   +0.207114
  H    +1.165050   -0.586580   +0.978350
  H    +0.158225   +2.710386   +0.963925
 10
 * E = -152.590459 hartree ; s = -1.2000 (bw120)
  C    -1.242273   -0.301532   +0.072462
  C    +0.092129   +0.379914   -0.299040
  O    +1.258351   -0.389978   +0.011441
  H    -2.071297   +0.345081   -0.198403
  H    -1.354119   -1.247420   -0.447725
  H    -1.291375   -0.487145   +1.141995
  H    +0.122909   +0.584678   -1.372173
  H    +0.131582   +1.343891   +0.210710
  H    +1.164092   -0.587833   +0.978012
  H    +0.157601   +2.678715   +0.946673
 10
 * E = -152.589391 hartree ; s = -1.1000 (bw110)
  C    -1.242068   -0.300502   +0.072836
  C    +0.092156   +0.381101   -0.297950
  O    +1.258238   -0.388470   +0.011774
  H    -2.071221   +0.345978   -0.197922
  H    -1.353596   -1.246236   -0.447677
  H    -1.291383   -0.486588   +1.142295
  H    +0.123623   +0.589593   -1.370289
  H    +0.131247   +1.344009   +0.214185
  H    +1.163249   -0.588990   +0.977701
  H    +0.156966   +2.647005   +0.929444
 10
 * E = -152.588220 hartree ; s = -1.0000 (bw100)
  C    -1.241843   -0.299514   +0.073225
  C    +0.092234   +0.382376   -0.296840
  O    +1.258045   -0.387026   +0.012090
  H    -2.071160   +0.346764   -0.197483
  H    -1.353031   -1.245116   -0.447611
  H    -1.291440   -0.486123   +1.142602
  H    +0.124444   +0.594506   -1.368389
  H    +0.130948   +1.344593   +0.217527
  H    +1.162533   -0.590073   +0.977412
  H    +0.156326   +2.615263   +0.912238
 10
 * E = -152.586937 hartree ; s = -0.9000 (bw90)
  C    -1.241615   -0.298592   +0.073623
  C    +0.092375   +0.383758   -0.295699
  O    +1.257783   -0.385655   +0.012386
  H    -2.071107   +0.347449   -0.197097
  H    -1.352492   -1.244085   -0.447521
  H    -1.291552   -0.485756   +1.142916
  H    +0.125368   +0.599375   -1.366488
  H    +0.130674   +1.345815   +0.220758
  H    +1.161952   -0.591096   +0.977143
  H    +0.155677   +2.583499   +0.895053
 10
 * E = -152.585535 hartree ; s = -0.8000 (bw80)
  C    -1.241403   -0.297757   +0.074029
  C    +0.092589   +0.385251   -0.294529
  O    +1.257463   -0.384371   +0.012658
  H    -2.071047   +0.348044   -0.196774
  H    -1.352031   -1.243173   -0.447407
  H    -1.291710   -0.485486   +1.143237
  H    +0.126380   +0.604151   -1.364621
  H    +0.130418   +1.347949   +0.223975
  H    +1.161500   -0.592070   +0.976894
  H    +0.155020   +2.551738   +0.877899
 10
 * E = -152.584005 hartree ; s = -0.7000 (bw70)
  C    -1.241225   -0.297033   +0.074437
  C    +0.092879   +0.386797   -0.293357
  O    +1.257102   -0.383189   +0.012904
  H    -2.070966   +0.348569   -0.196526
  H    -1.351704   -1.242411   -0.447267
  H    -1.291895   -0.485308   +1.143564
  H    +0.127456   +0.608773   -1.362869
  H    +0.130182   +1.351593   +0.227471
  H    +1.161170   -0.592997   +0.976660
  H    +0.154360   +2.520049   +0.860809
 10
 * E = -152.582331 hartree ; s = -0.6000 (bw60)
  C    -1.241098   -0.296438   +0.074835
  C    +0.093236   +0.388179   -0.292287
  O    +1.256722   -0.382129   +0.013122
  H    -2.070850   +0.349039   -0.196364
  H    -1.351545   -1.241826   -0.447109
  H    -1.292079   -0.485210   +1.143890
  H    +0.128564   +0.613176   -1.361379
  H    +0.130008   +1.358089   +0.231975
  H    +1.160945   -0.593864   +0.976440
  H    +0.153700   +2.488690   +0.843913
 10
 * E = -152.580473 hartree ; s = -0.5000 (bw50)
  C    -1.241028   -0.295975   +0.075212
  C    +0.093617   +0.388911   -0.291561
  O    +1.256350   -0.381219   +0.013306
  H    -2.070699   +0.349452   -0.196284
  H    -1.351541   -1.241427   -0.446955
  H    -1.292234   -0.485173   +1.144192
  H    +0.129641   +0.617239   -1.360326
  H    +0.129984   +1.369693   +0.238758
  H    +1.160802   -0.594637   +0.976232
  H    +0.153062   +2.458608   +0.827720
 10
 * E = -152.578351 hartree ; s = -0.4000 (bw40)
  C    -1.241002   -0.295630   +0.075544
  C    +0.093958   +0.388482   -0.291454
  O    +1.256016   -0.380483   +0.013450
  H    -2.070539   +0.349795   -0.196268
  H    -1.351626   -1.241194   -0.446837
  H    -1.292344   -0.485173   +1.144448
  H    +0.130591   +0.620778   -1.359760
  H    +0.130191   +1.387778   +0.248694
  H    +1.160722   -0.595264   +0.976046
  H    +0.152488   +2.431686   +0.813236
 10
 * E = -152.575975 hartree ; s = -0.3000 (bw30)
  C    -1.240997   -0.295363   +0.075823
  C    +0.094221   +0.386909   -0.291981
  O    +1.255731   -0.379905   +0.013561
  H    -2.070398   +0.350060   -0.196283
  H    -1.351718   -1.241072   -0.446767
  H    -1.292418   -0.485183   +1.144649
  H    +0.131371   +0.623735   -1.359506
  H    +0.130608   +1.410867   +0.261152
  H    +1.160680   -0.595745   +0.975898
  H    +0.152004   +2.408939   +0.801000
 10
 * E = -152.573635 hartree ; s = -0.2000 (bw20)
  C    -1.240994   -0.295137   +0.076062
  C    +0.094416   +0.384554   -0.292954
  O    +1.255489   -0.379436   +0.013651
  H    -2.070278   +0.350268   -0.196304
  H    -1.351792   -1.241004   -0.446734
  H    -1.292472   -0.485197   +1.144810
  H    +0.132017   +0.626249   -1.359378
  H    +0.131159   +1.436707   +0.275023
  H    +1.160659   -0.596122   +0.975789
  H    +0.151594   +2.389652   +0.790628
 10
 * E = -152.571841 hartree ; s = -0.1000 (bw10)
  C    -1.240984   -0.294934   +0.076273
  C    +0.094560   +0.381706   -0.294220
  O    +1.255273   -0.379030   +0.013728
  H    -2.070178   +0.350441   -0.196326
  H    -1.351852   -1.240965   -0.446720
  H    -1.292518   -0.485211   +1.144944
  H    +0.132572   +0.628491   -1.359286
  H    +0.131784   +1.463974   +0.289636
  H    +1.160648   -0.596434   +0.975706
  H    +0.151234   +2.372789   +0.781562
 10
 * E = -152.571139 hartree ; s =  0.0000 (saddle)
  C    -1.240969   -0.294741   +0.076467
  C    +0.094664   +0.378492   -0.295699
  O    +1.255078   -0.378663   +0.013798
  H    -2.070088   +0.350596   -0.196348
  H    -1.351913   -1.240940   -0.446713
  H    -1.292557   -0.485219   +1.145064
  H    +0.133077   +0.630587   -1.359188
  H    +0.132456   +1.492087   +0.304679
  H    +1.160632   -0.596707   +0.975628
  H    +0.150914   +2.357742   +0.773485
 10
 * E = -152.571900 hartree ; s =  0.1000 (fw10)
  C    -1.240951   -0.294553   +0.076650
  C    +0.094756   +0.375036   -0.297325
  O    +1.254889   -0.378307   +0.013866
  H    -2.070011   +0.350737   -0.196365
  H    -1.351988   -1.240921   -0.446705
  H    -1.292604   -0.485237   +1.145178
  H    +0.133570   +0.632644   -1.359076
  H    +0.133163   +1.520631   +0.319996
  H    +1.160632   -0.596975   +0.975591
  H    +0.150620   +2.343920   +0.766026
 10
 * E = -152.574151 hartree ; s =  0.2000 (fw20)
  C    -1.240929   -0.294371   +0.076831
  C    +0.094820   +0.371238   -0.299139
  O    +1.254711   -0.377957   +0.013936
  H    -2.069926   +0.350884   -0.196385
  H    -1.352102   -1.240909   -0.446677
  H    -1.292647   -0.485248   +1.145297
  H    +0.134069   +0.634727   -1.358955
  H    +0.133898   +1.549654   +0.335547
  H    +1.160615   -0.597235   +0.975541
  H    +0.150363   +2.331680   +0.759438
 10
 * E = -152.577521 hartree ; s =  0.3000 (fw30)
  C    -1.240901   -0.294191   +0.077013
  C    +0.094860   +0.366999   -0.301192
  O    +1.254546   -0.377602   +0.014015
  H    -2.069827   +0.351050   -0.196405
  H    -1.352298   -1.240905   -0.446611
  H    -1.292687   -0.485251   +1.145426
  H    +0.134611   +0.636944   -1.358835
  H    +0.134662   +1.579094   +0.351313
  H    +1.160574   -0.597499   +0.975485
  H    +0.150151   +2.321469   +0.753947
 10
 * E = -152.581352 hartree ; s =  0.4000 (fw40)
  C    -1.240873   -0.294017   +0.077206
  C    +0.094866   +0.362084   -0.303605
  O    +1.254398   -0.377223   +0.014109
  H    -2.069691   +0.351256   -0.196426
  H    -1.352641   -1.240916   -0.446475
  H    -1.292713   -0.485243   +1.145576
  H    +0.135244   +0.639439   -1.358741
  H    +0.135462   +1.608847   +0.367224
  H    +1.160492   -0.597789   +0.975408
  H    +0.150009   +2.314545   +0.750238
 10
 * E = -152.584990 hartree ; s =  0.5000 (fw50)
  C    -1.240855   -0.293874   +0.077411
  C    +0.094821   +0.356185   -0.306553
  O    +1.254290   -0.376811   +0.014230
  H    -2.069476   +0.351544   -0.196455
  H    -1.353261   -1.240965   -0.446208
  H    -1.292708   -0.485202   +1.145762
  H    +0.136033   +0.642369   -1.358715
  H    +0.136298   +1.638250   +0.382903
  H    +1.160325   -0.598124   +0.975294
  H    +0.149987   +2.313291   +0.749610
 10
 * E = -152.588179 hartree ; s =  0.6000 (fw60)
  C    -1.240875   -0.293815   +0.077613
  C    +0.094698   +0.349307   -0.310068
  O    +1.254274   -0.376389   +0.014384
  H    -2.069130   +0.351961   -0.196494
  H    -1.354347   -1.241104   -0.445733
  H    -1.292624   -0.485094   +1.145992
  H    +0.137018   +0.645702   -1.358833
  H    +0.137136   +1.665498   +0.397361
  H    +1.160008   -0.598514   +0.975128
  H    +0.150134   +2.319990   +0.753311
 10
 * E = -152.591043 hartree ; s =  0.7000 (fw70)
  C    -1.240964   -0.293908   +0.077776
  C    +0.094485   +0.342069   -0.313887
  O    +1.254406   -0.376021   +0.014560
  H    -2.068627   +0.352525   -0.196542
  H    -1.356010   -1.241400   -0.445019
  H    -1.292421   -0.484881   +1.146250
  H    +0.138148   +0.649083   -1.359140
  H    +0.137938   +1.689560   +0.410053
  H    +1.159505   -0.598947   +0.974924
  H    +0.150415   +2.333225   +0.760583
 10
 * E = -152.593688 hartree ; s =  0.8000 (fw80)
  C    -1.241133   -0.294178   +0.077882
  C    +0.094199   +0.334957   -0.317787
  O    +1.254703   -0.375737   +0.014747
  H    -2.067977   +0.353223   -0.196586
  H    -1.358278   -1.241906   -0.444083
  H    -1.292083   -0.484550   +1.146520
  H    +0.139354   +0.652226   -1.359619
  H    +0.138714   +1.711651   +0.421652
  H    +1.158812   -0.599415   +0.974705
  H    +0.150766   +2.349663   +0.769623
 10
 * E = -152.596140 hartree ; s =  0.9000 (fw90)
  C    -1.241389   -0.294627   +0.077922
  C    +0.093858   +0.328114   -0.321699
  O    +1.255165   -0.375545   +0.014946
  H    -2.067197   +0.354046   -0.196618
  H    -1.361154   -1.242649   -0.442932
  H    -1.291606   -0.484095   +1.146790
  H    +0.140599   +0.655029   -1.360249
  H    +0.139486   +1.732976   +0.432819
  H    +1.157933   -0.599930   +0.974485
  H    +0.151146   +2.367444   +0.779426
 10
 * E = -152.598410 hartree ; s =  1.0000 (fw100)
  C    -1.241729   -0.295255   +0.077892
  C    +0.093478   +0.321569   -0.325604
  O    +1.255780   -0.375437   +0.015151
  H    -2.066310   +0.354976   -0.196627
  H    -1.364643   -1.243637   -0.441574
  H    -1.290995   -0.483512   +1.147059
  H    +0.141867   +0.657449   -1.361022
  H    +0.140267   +1.754035   +0.443819
  H    +1.156880   -0.600502   +0.974265
  H    +0.151543   +2.385894   +0.789628
 10
 * E = -152.600507 hartree ; s =  1.1000 (fw110)
  C    -1.242152   -0.296051   +0.077789
  C    +0.093078   +0.315325   -0.329489
  O    +1.256536   -0.375408   +0.015361
  H    -2.065334   +0.355999   -0.196601
  H    -1.368722   -1.244870   -0.440021
  H    -1.290256   -0.482803   +1.147319
  H    +0.143137   +0.659466   -1.361940
  H    +0.141058   +1.774984   +0.454740
  H    +1.155663   -0.601147   +0.974037
  H    +0.151954   +2.404775   +0.800100
 10
 * E = -152.602442 hartree ; s =  1.2000 (fw120)
  C    -1.242653   -0.297006   +0.077614
  C    +0.092677   +0.309376   -0.333341
  O    +1.257418   -0.375445   +0.015572
  H    -2.064295   +0.357093   -0.196531
  H    -1.373365   -1.246329   -0.438278
  H    -1.289395   -0.481972   +1.147562
  H    +0.144390   +0.661063   -1.363014
  H    +0.141865   +1.795879   +0.465606
  H    +1.154300   -0.601875   +0.973796
  H    +0.152373   +2.423972   +0.810781
