 10
 * E = -152.598323 hartree ; s = -2.1000 (bw210)
  C    -1.17901688   +0.01756022   -0.23161980
  C    +0.19492296   -0.52441515   +0.22536705
  O    +1.27050104   +0.39369408   -0.01542075
  H    -1.39668389   +0.95598193   +0.26479922
  H    -1.96216317   -0.69339411   +0.01203508
  H    -1.18995707   +0.18624974   -1.30469910
  H    +0.17423795   -0.69929605   +1.30474093
  H    +0.38320210   -1.49063610   -0.25944976
  H    +1.26695183   +0.51333682   -0.99937285
  H    -1.73679877   +2.75309419   +1.28354896
 10
 * E = -152.598032 hartree ; s = -2.0000 (bw200)
  C    -1.17906503   +0.01929221   -0.23051912
  C    +0.19451496   -0.52390820   +0.22555596
  O    +1.27045500   +0.39375282   -0.01547208
  H    -1.39483809   +0.95711382   +0.26711701
  H    -1.96309401   -0.69063713   +0.01313312
  H    -1.19066620   +0.18960313   -1.30330422
  H    +0.17404321   -0.69869226   +1.30494993
  H    +0.38213475   -1.49023287   -0.25927990
  H    +1.26662586   +0.51353791   -0.99940516
  H    -1.72819593   +2.70883117   +1.25866705
 10
 * E = -152.597684 hartree ; s = -1.9000 (bw190)
  C    -1.17911425   +0.02096918   -0.22945494
  C    +0.19409903   -0.52340812   +0.22571419
  O    +1.27041213   +0.39382796   -0.01550701
  H    -1.39273990   +0.95813724   +0.26950202
  H    -1.96413384   -0.68776687   +0.01432006
  H    -1.19153880   +0.19307295   -1.30190878
  H    +0.17375375   -0.69796676   +1.30514680
  H    +0.38115894   -1.48987727   -0.25901478
  H    +1.26636025   +0.51375593   -0.99942208
  H    -1.71956188   +2.66458877   +1.23382484
 10
 * E = -152.597270 hartree ; s = -1.8000 (bw180)
  C    -1.17917880   +0.02258581   -0.22842992
  C    +0.19367674   -0.52290010   +0.22584913
  O    +1.27038990   +0.39391581   -0.01552500
  H    -1.39040676   +0.95904109   +0.27194523
  H    -1.96530701   -0.68477277   +0.01559485
  H    -1.19257915   +0.19666977   -1.30051013
  H    +0.17339020   -0.69713011   +1.30533783
  H    +0.38027099   -1.48954388   -0.25866288
  H    +1.26614803   +0.51399882   -0.99942314
  H    -1.71089499   +2.62037283   +1.20902495
 10
 * E = -152.596779 hartree ; s = -1.7000 (bw170)
  C    -1.17926717   +0.02413313   -0.22744778
  C    +0.19324600   -0.52237623   +0.22597401
  O    +1.27039678   +0.39401424   -0.01552976
  H    -1.38788208   +0.95982006   +0.27442019
  H    -1.96663790   -0.68164799   +0.01695113
  H    -1.19377615   +0.20040100   -1.29910888
  H    +0.17297692   -0.69621519   +1.30552885
  H    +0.37945712   -1.48921102   -0.25825012
  H    +1.26597972   +0.51426394   -0.99940991
  H    -1.70219215   +2.57618387   +1.18427108
 10
 * E = -152.596200 hartree ; s = -1.6000 (bw160)
  C    -1.17938200   +0.02561006   -0.22650584
  C    +0.19280678   -0.52183275   +0.22610101
  O    +1.27044177   +0.39411478   -0.01552712
  H    -1.38523405   +0.96048522   +0.27688721
  H    -1.96813282   -0.67838614   +0.01838679
  H    -1.19511021   +0.20426822   -1.29770076
  H    +0.17255781   -0.69526317   +1.30572890
  H    +0.37870779   -1.48885489   -0.25780402
  H    +1.26584214   +0.51454282   -0.99938977
  H    -1.69344909   +2.53201979   +1.15956486
 10
 * E = -152.595519 hartree ; s = -1.5000 (bw150)
  C    -1.17953018   +0.02702402   -0.22560411
  C    +0.19236703   -0.52126601   +0.22624284
  O    +1.27052326   +0.39421903   -0.01551706
  H    -1.38255589   +0.96105777   +0.27930026
  H    -1.96978808   -0.67498509   +0.01990500
  H    -1.19655382   +0.20827780   -1.29628415
  H    +0.17216992   -0.69432495   +1.30594214
  H    +0.37801615   -1.48845908   -0.25734576
  H    +1.26571885   +0.51482275   -0.99936389
  H    -1.68466476   +2.48787427   +1.13490202
 10
 * E = -152.594721 hartree ; s = -1.4000 (bw140)
  C    -1.17970798   +0.02838824   -0.22473521
  C    +0.19193574   -0.52068074   +0.22640899
  O    +1.27063915   +0.39432117   -0.01550595
  H    -1.37995074   +0.96157692   +0.28161488
  H    -1.97157619   -0.67145496   +0.02151317
  H    -1.19807309   +0.21242285   -1.29485325
  H    +0.17184183   -0.69344493   +1.30617392
  H    +0.37738007   -1.48801988   -0.25689225
  H    +1.26559977   +0.51508998   -0.99933690
  H    -1.67583700   +2.44373613   +1.11027993
 10
 * E = -152.593790 hartree ; s = -1.3000 (bw130)
  C    -1.17991595   +0.02972177   -0.22389224
  C    +0.19152511   -0.52008806   +0.22660109
  O    +1.27078680   +0.39442117   -0.01549378
  H    -1.37753878   +0.96209126   +0.28379509
  H    -1.97346110   -0.66781211   +0.02321818
  H    -1.19963308   +0.21668801   -1.29340807
  H    +0.17159206   -0.69266175   +1.30641893
  H    +0.37680804   -1.48754994   -0.25645621
  H    +1.26547917   +0.51533922   -0.99931097
  H    -1.66696590   +2.39959588   +1.08568909
 10
 * E = -152.592709 hartree ; s = -1.2000 (bw120)
  C    -1.18015778   +0.03105318   -0.22306618
  C    +0.19115098   -0.51950015   +0.22681700
  O    +1.27095402   +0.39451378   -0.01548320
  H    -1.37541993   +0.96267495   +0.28581496
  H    -1.97539683   -0.66409199   +0.02502214
  H    -1.20119418   +0.22105002   -1.29194700
  H    +0.17142008   -0.69199498   +1.30667875
  H    +0.37631697   -1.48706998   -0.25603287
  H    +1.26534897   +0.51556095   -0.99928819
  H    -1.65805085   +2.35544293   +1.06111887
 10
 * E = -152.591458 hartree ; s = -1.1000 (bw110)
  C    -1.18043879   +0.03240893   -0.22224597
  C    +0.19082924   -0.51893710   +0.22705195
  O    +1.27113181   +0.39460215   -0.01547314
  H    -1.37368581   +0.96342693   +0.28769089
  H    -1.97733625   -0.66034384   +0.02691607
  H    -1.20270920   +0.22545807   -1.29048277
  H    +0.17131477   -0.69145577   +1.30694599
  H    +0.37592486   -1.48661120   -0.25562223
  H    +1.26520981   +0.51575516   -0.99926806
  H    -1.64909083   +2.31126615   +1.03656504
 10
 * E = -152.590014 hartree ; s = -1.0000 (bw100)
  C    -1.18076423   +0.03380384   -0.22142574
  C    +0.19057894   -0.51841903   +0.22729696
  O    +1.27130803   +0.39467782   -0.01546679
  H    -1.37240682   +0.96452601   +0.28948904
  H    -1.97924289   -0.65664118   +0.02888884
  H    -1.20414223   +0.22985712   -1.28904975
  H    +0.17125497   -0.69103983   +1.30721587
  H    +0.37565389   -1.48620477   -0.25521688
  H    +1.26506585   +0.51592397   -0.99925219
  H    -1.64009322   +2.26705706   +1.01201806
 10
 * E = -152.588353 hartree ; s = -0.9000 (bw90)
  C    -1.18112512   +0.03522203   -0.22061980
  C    +0.19041807   -0.51795918   +0.22754726
  O    +1.27147101   +0.39474185   -0.01546626
  H    -1.37167812   +0.96636595   +0.29142001
  H    -1.98111882   -0.65308987   +0.03092300
  H    -1.20545403   +0.23419108   -1.28772892
  H    +0.17121000   -0.69073501   +1.30748207
  H    +0.37551578   -1.48587776   -0.25481788
  H    +1.26492880   +0.51608007   -0.99923580
  H    -1.63106494   +2.22282794   +0.98748226
 10
 * E = -152.586445 hartree ; s = -0.8000 (bw80)
  C    -1.18147491   +0.03653492   -0.21988477
  C    +0.19035298   -0.51756706   +0.22779280
  O    +1.27161708   +0.39479425   -0.01546626
  H    -1.37167495   +0.96991513   +0.29403626
  H    -1.98302017   -0.64984603   +0.03301007
  H    -1.20662194   +0.23839804   -1.28667216
  H    +0.17115496   -0.69052493   +1.30773499
  H    +0.37550892   -1.48565180   -0.25443422
  H    +1.26480815   +0.51622613   -0.99921677
  H    -1.62203292   +2.17868500   +0.96301308
 10
 * E = -152.584235 hartree ; s = -0.7000 (bw70)
  C    -1.18171675   +0.03740224   -0.21938682
  C    +0.19037679   -0.51724003   +0.22802723
  O    +1.27173613   +0.39483393   -0.01546626
  H    -1.37275076   +0.97713208   +0.29844325
  H    -1.98501727   -0.64708901   +0.03512520
  H    -1.20762896   +0.24240497   -1.28606095
  H    +0.17107294   -0.69038682   +1.30796415
  H    +0.37560415   -1.48553326   -0.25408126
  H    +1.26471606   +0.51636689   -0.99920085
  H    -1.61312898   +2.13525014   +0.93895090
 10
 * E = -152.581600 hartree ; s = -0.6000 (bw60)
  C    -1.18171516   +0.03732975   -0.21938894
  C    +0.19045881   -0.51697120   +0.22823995
  O    +1.27182609   +0.39485986   -0.01547579
  H    -1.37527283   +0.99020805   +0.30589724
  H    -1.98706677   -0.64494476   +0.03716306
  H    -1.20845394   +0.24604888   -1.28594614
  H    +0.17096604   -0.69030109   +1.30815674
  H    +0.37573488   -1.48550892   -0.25379286
  H    +1.26466103   +0.51650183   -0.99919083
  H    -1.60475317   +2.09445219   +0.91635922
 10
 * E = -152.578381 hartree ; s = -0.5000 (bw50)
  C    -1.18143098   +0.03612322   -0.21999801
  C    +0.19055725   -0.51674102   +0.22842305
  O    +1.27188589   +0.39487309   -0.01548584
  H    -1.37912789   +1.00911183   +0.31645326
  H    -1.98898292   -0.64335883   +0.03898819
  H    -1.20910591   +0.24917103   -1.28614723
  H    +0.17085598   -0.69024818   +1.30830809
  H    +0.37583384   -1.48554121   -0.25359389
  H    +1.26464094   +0.51662301   -0.99918925
  H    -1.59737382   +2.05854802   +0.89648283
 10
 * E = -152.574613 hartree ; s = -0.4000 (bw40)
  C    -1.18094202   +0.03403879   -0.22108125
  C    +0.19064721   -0.51653623   +0.22858497
  O    +1.27192717   +0.39487680   -0.01549590
  H    -1.38382012   +1.03180400   +0.32903922
  H    -1.99066413   -0.64212003   +0.04056990
  H    -1.20962715   +0.25181691   -1.28643826
  H    +0.17075702   -0.69021485   +1.30842506
  H    +0.37587720   -1.48559889   -0.25347112
  H    +1.26464621   +0.51672620   -0.99918925
  H    -1.59101998   +2.02766418   +0.87939200
 10
 * E = -152.570671 hartree ; s = -0.3000 (bw30)
  C    -1.18032819   +0.03138815   -0.22247774
  C    +0.19072393   -0.51634414   +0.22872892
  O    +1.27195787   +0.39487680   -0.01550225
  H    -1.38896002   +1.05657799   +0.34274385
  H    -1.99213895   -0.64105321   +0.04197381
  H    -1.21006796   +0.25414318   -1.28671079
  H    +0.17067023   -0.69018998   +1.30852082
  H    +0.37587191   -1.48566712   -0.25339704
  H    +1.26466582   +0.51681405   -0.99918925
  H    -1.58544881   +2.00059784   +0.86441518
 10
 * E = -152.567162 hartree ; s = -0.2000 (bw20)
  C    -1.17963496   +0.02835596   -0.22408697
  C    +0.19079009   -0.51615575   +0.22886280
  O    +1.27198220   +0.39487680   -0.01550225
  H    -1.39435709   +1.08254893   +0.35710095
  H    -1.99347406   -0.64005678   +0.04327188
  H    -1.21046484   +0.25628476   -1.28693515
  H    +0.17059191   -0.69016984   +1.30861079
  H    +0.37583701   -1.48573700   -0.25335206
  H    +1.26469118   +0.51689395   -0.99918925
  H    -1.58045283   +1.97632607   +0.85098683
 10
 * E = -152.564755 hartree ; s = -0.1000 (bw10)
  C    -1.17887612   +0.02500997   -0.22586976
  C    +0.19084988   -0.51597476   +0.22899296
  O    +1.27200178   +0.39487680   -0.01550225
  H    -1.39992508   +1.10933114   +0.37189675
  H    -1.99473403   -0.63907728   +0.04452391
  H    -1.21083790   +0.25835384   -1.28711827
  H    +0.17052206   -0.69014975   +1.30869599
  H    +0.37579200   -1.48580684   -0.25331290
  H    +1.26472085   +0.51696592   -0.99919294
  H    -1.57593527   +1.95438427   +0.83885013
 10
 * E = -152.563913 hartree ; s =  0.0000 (saddle)
  C    -1.17804488   +0.02130757   -0.22785097
  C    +0.19090799   -0.51579302   +0.22912264
  O    +1.27202232   +0.39487704   -0.01550486
  H    -1.40564189   +1.13684805   +0.38709634
  H    -1.99599091   -0.63807265   +0.04579608
  H    -1.21120790   +0.26044910   -1.28727856
  H    +0.17045158   -0.69012092   +1.30878067
  H    +0.37575751   -1.48588067   -0.25326683
  H    +1.26474668   +0.51703813   -0.99920401
  H    -1.57197233   +1.93510975   +0.82818936
 10
 * E = -152.564694 hartree ; s =  0.1000 (fw10)
  C    -1.17713195   +0.01723213   -0.23003598
  C    +0.19096576   -0.51561176   +0.22925174
  O    +1.27204201   +0.39487680   -0.01551389
  H    -1.41149819   +1.16494076   +0.40260915
  H    -1.99731375   -0.63699389   +0.04714122
  H    -1.21160098   +0.26268621   -1.28743099
  H    +0.17037178   -0.69007991   +1.30887113
  H    +0.37574812   -1.48596718   -0.25319489
  H    +1.26478010   +0.51709874   -0.99921519
  H    -1.56859081   +1.91866691   +0.81908907
 10
 * E = -152.566675 hartree ; s =  0.2000 (fw20)
  C    -1.17609211   +0.01251875   -0.23257709
  C    +0.19103880   -0.51543818   +0.22938615
  O    +1.27206581   +0.39488527   -0.01552394
  H    -1.41749323   +1.19372588   +0.41850191
  H    -1.99881397   -0.63580801   +0.04865308
  H    -1.21203490   +0.26518816   -1.28763421
  H    +0.17027123   -0.69001585   +1.30897382
  H    +0.37582694   -1.48606983   -0.25305889
  H    +1.26481025   +0.51716489   -0.99922520
  H    -1.56635820   +1.90771822   +0.81302895
 10
 * E = -152.569212 hartree ; s =  0.3000 (fw30)
  C    -1.17490675   +0.00703806   -0.23554682
  C    +0.19114516   -0.51529796   +0.22952321
  O    +1.27209492   +0.39490485   -0.01553400
  H    -1.42350785   +1.22259196   +0.43443386
  H    -2.00059309   -0.63449990   +0.05039725
  H    -1.21253708   +0.26807006   -1.28794325
  H    +0.17011883   -0.68990686   +1.30909288
  H    +0.37608094   -1.48621588   -0.25280595
  H    +1.26483619   +0.51723474   -0.99923474
  H    -1.56583799   +1.90496123   +0.81149803
 10
 * E = -152.571878 hartree ; s =  0.4000 (fw40)
  C    -1.17363302   +0.00094617   -0.23887694
  C    +0.19131079   -0.51523287   +0.22964704
  O    +1.27212509   +0.39493977   -0.01554405
  H    -1.42929017   +1.25034681   +0.44974982
  H    -2.00265474   -0.63312191   +0.05233404
  H    -1.21310224   +0.27127317   -1.28839673
  H    +0.16988811   -0.68973276   +1.30922674
  H    +0.37662388   -1.48643815   -0.25237625
  H    +1.26485580   +0.51730512   -0.99924481
  H    -1.56727581   +1.91157489   +0.81515197
 10
 * E = -152.574523 hartree ; s =  0.5000 (fw50)
  C    -1.17237411   -0.00536586   -0.24236792
  C    +0.19154680   -0.51528684   +0.22974493
  O    +1.27215207   +0.39499374   -0.01555622
  H    -1.43475022   +1.27654584   +0.46420378
  H    -2.00488102   -0.63176085   +0.05433221
  H    -1.21370708   +0.27460117   -1.28897409
  H    +0.16956320   -0.68947611   +1.30936698
  H    +0.37753619   -1.48677101   -0.25174389
  H    +1.26486581   +0.51737497   -0.99925325
  H    -1.57011113   +1.92487789   +0.82250491
 10
 * E = -152.577092 hartree ; s =  0.6000 (fw60)
  C    -1.17119300   -0.01166889   -0.24590495
  C    +0.19186219   -0.51547575   +0.22981002
  O    +1.27216900   +0.39506889   -0.01556892
  H    -1.43999016   +1.30170079   +0.47807986
  H    -2.00717075   -0.63044319   +0.05629387
  H    -1.21433682   +0.27791488   -1.28962285
  H    +0.16913509   -0.68913583   +1.30950721
  H    +0.37885385   -1.48724989   -0.25089985
  H    +1.26487377   +0.51744112   -0.99926700
  H    -1.57368199   +1.94168297   +0.83180202
 10
 * E = -152.579547 hartree ; s =  0.7000 (fw70)
  C    -1.17011083   -0.01788407   -0.24945519
  C    +0.19225326   -0.51580596   +0.22983383
  O    +1.27217377   +0.39516519   -0.01558480
  H    -1.44510888   +1.32628424   +0.49164108
  H    -2.00946209   -0.62917002   +0.05816875
  H    -1.21499088   +0.28114921   -1.29030495
  H    +0.16860591   -0.68870826   +1.30964480
  H    +0.38060120   -1.48789921   -0.24983726
  H    +1.26487377   +0.51749721   -0.99928714
  H    -1.57764023   +1.96033012   +0.84212522
 10
 * E = -152.581869 hartree ; s =  0.8000 (fw80)
  C    -1.16913397   -0.02398284   -0.25299381
  C    +0.19271788   -0.51628117   +0.22981584
  O    +1.27216689   +0.39528479   -0.01560279
  H    -1.45015407   +1.35053378   +0.50501923
  H    -2.01172804   -0.62794125   +0.05992985
  H    -1.21566876   +0.28427294   -1.29099502
  H    +0.16797725   -0.68818914   +1.30977605
  H    +0.38279093   -1.48873001   -0.24855295
  H    +1.26488115   +0.51754219   -0.99931518
  H    -1.58183715   +1.98011816   +0.85308819
 10
 * E = -152.584045 hartree ; s =  0.9000 (fw90)
  C    -1.16825395   -0.02994984   -0.25651918
  C    +0.19325023   -0.51690295   +0.22974916
  O    +1.27213883   +0.39542714   -0.01562184
  H    -1.45514896   +1.37457008   +0.51827988
  H    -2.01394685   -0.62675220   +0.06155707
  H    -1.21637521   +0.28726014   -1.29168402
  H    +0.16724805   -0.68757424   +1.30989776
  H    +0.38542886   -1.48975504   -0.24703897
  H    +1.26489812   +0.51757394   -0.99935118
  H    -1.58620286   +2.00069888   +0.86450411
 10
 * E = -152.586073 hartree ; s =  1.0000 (fw100)
  C    -1.16746494   -0.03577397   -0.26002022
  C    +0.19384714   -0.51767184   +0.22963274
  O    +1.27208275   +0.39559383   -0.01564195
  H    -1.46010895   +1.39846297   +0.53146380
  H    -2.01610485   -0.62560812   +0.06303400
  H    -1.21710496   +0.29009600   -1.29236824
  H    +0.16642518   -0.68686884   +1.31000623
  H    +0.38850602   -1.49098112   -0.24529110
  H    +1.26493197   +0.51758400   -0.99939509
  H    -1.59069612   +2.02187393   +0.87625817
 10
 * E = -152.587953 hartree ; s =  1.1000 (fw110)
  C    -1.16675320   -0.04145204   -0.26349003
  C    +0.19450491   -0.51858626   +0.22946394
  O    +1.27199278   +0.39578381   -0.01566206
  H    -1.46504194   +1.42226484   +0.54459585
  H    -2.01819615   -0.62451377   +0.06434795
  H    -1.21785797   +0.29276623   -1.29305086
  H    +0.16551499   -0.68606977   +1.31009620
  H    +0.39200707   -1.49240780   -0.24331409
  H    +1.26499016   +0.51756495   -0.99944696
  H    -1.59528728   +2.04350721   +0.88827896
 10
 * E = -152.589688 hartree ; s =  1.2000 (fw120)
  C    -1.16610390   -0.04698088   -0.26692122
  C    +0.19521824   -0.51964197   +0.22924380
  O    +1.27186314   +0.39600024   -0.01568217
  H    -1.46994794   +1.44600105   +0.55769617
  H    -2.02021022   -0.62347499   +0.06549309
  H    -1.21862579   +0.29525389   -1.29373508
  H    +0.16452225   -0.68518077   +1.31016392
  H    +0.39590605   -1.49402603   -0.24111325
  H    +1.26507698   +0.51751203   -0.99950885
  H    -1.59995723   +2.06549982   +0.90051197
 10
 * E = -152.591284 hartree ; s =  1.3000 (fw130)
  C    -1.16550222   -0.05235785   -0.27030690
  C    +0.19597813   -0.52083420   +0.22897181
  O    +1.27168587   +0.39623889   -0.01570386
  H    -1.47483592   +1.46969815   +0.57077583
  H    -2.02213800   -0.62249814   +0.06646201
  H    -1.21939999   +0.29755317   -1.29442407
  H    +0.16345490   -0.68421026   +1.31020519
  H    +0.40016221   -1.49582786   -0.23869808
  H    +1.26520396   +0.51741307   -0.99958085
  H    -1.60469603   +2.08778298   +0.91291908
 10
 * E = -152.592749 hartree ; s =  1.4000 (fw140)
  C    -1.16492912   -0.05758718   -0.27364601
  C    +0.19678196   -0.52215291   +0.22865006
  O    +1.27145091   +0.39650084   -0.01572926
  H    -1.47970489   +1.49336985   +0.58384494
  H    -2.02396579   -0.62159220   +0.06725419
  H    -1.22016624   +0.29965295   -1.29512313
  H    +0.16231982   -0.68316883   +1.31021791
  H    +0.40472691   -1.49779906   -0.23608818
  H    +1.26537490   +0.51725379   -0.99966920
  H    -1.60949619   +2.11029892   +0.92546904
 10
 * E = -152.594089 hartree ; s =  1.5000 (fw150)
  C    -1.16436926   -0.06267310   -0.27693326
  C    +0.19762599   -0.52359174   +0.22828281
  O    +1.27115192   +0.39678501   -0.01575996
  H    -1.48455902   +1.51703622   +0.59691188
  H    -2.02568294   -0.62076402   +0.06787121
  H    -1.22090020   +0.30154317   -1.29584017
  H    +0.16113076   -0.68206814   +1.31020202
  H    +0.40954189   -1.49992476   -0.23330788
  H    +1.26559925   +0.51702413   -0.99977399
  H    -1.61435085   +2.13301120   +0.93814019
 10
 * E = -152.595312 hartree ; s =  1.6000 (fw160)
  C    -1.16380091   -0.06762197   -0.28016493
  C    +0.19850124   -0.52513694   +0.22787482
  O    +1.27078203   +0.39709193   -0.01579488
  H    -1.48939678   +1.54070315   +0.60998099
  H    -2.02728107   -0.62002424   +0.06831625
  H    -1.22158390   +0.30321801   -1.29657782
  H    +0.15990518   -0.68092406   +1.31015280
  H    +0.41454685   -1.50218277   -0.23038682
  H    +1.26588078   +0.51669921   -0.99989781
  H    -1.61925685   +2.15588384   +0.95091397
 10
 * E = -152.596425 hartree ; s =  1.7000 (fw170)
  C    -1.16321089   -0.07244224   -0.28333999
  C    +0.19940085   -0.52677580   +0.22743507
  O    +1.27033487   +0.39742002   -0.01583880
  H    -1.49422075   +1.56438488   +0.62306225
  H    -2.02874426   -0.61938182   +0.06859195
  H    -1.22218292   +0.30467219   -1.29734515
  H    +0.15865103   -0.67976092   +1.31007398
  H    +0.41967511   -1.50454607   -0.22736310
  H    +1.26622314   +0.51626687   -1.00004493
  H    -1.62421524   +2.17889985   +0.96378094
 10
 * E = -152.597437 hartree ; s =  1.8000 (fw180)
  C    -1.16258117   -0.07714187   -0.28646003
  C    +0.20032004   -0.52849405   +0.22697098
  O    +1.26980093   +0.39776822   -0.01589384
  H    -1.49902991   +1.58809786   +0.63615884
  H    -2.03006084   -0.61885107   +0.06870520
  H    -1.22266713   +0.30589512   -1.29814579
  H    +0.15738894   -0.67860416   +1.30996708
  H    +0.42486211   -1.50699085   -0.22427377
  H    +1.26663119   +0.51569907   -1.00022114
  H    -1.62923078   +2.20204185   +0.97672882
 10
 * E = -152.598353 hartree ; s =  1.9000 (fw190)
  C    -1.16190488   -0.08172719   -0.28952185
  C    +0.20125191   -0.53027684   +0.22649420
  O    +1.26918180   +0.39813283   -0.01596316
  H    -1.50382904   +1.61184787   +0.64927822
  H    -2.03122185   -0.61844412   +0.06865598
  H    -1.22300421   +0.30687886   -1.29899086
  H    +0.15613479   -0.67747700   +1.30983691
  H    +0.43004697   -1.50948701   -0.22116380
  H    +1.26710422   +0.51497621   -1.00042909
  H    -1.63430720   +2.22529812   +0.98975293
 10
 * E = -152.599183 hartree ; s =  2.0000 (fw200)
  C    -1.16116826   -0.08620403   -0.29252281
  C    +0.20219015   -0.53211097   +0.22601423
  O    +1.26847322   +0.39851277   -0.01604677
  H    -1.50861385   +1.63564814   +0.66242298
  H    -2.03221988   -0.61817319   +0.06844378
  H    -1.22315712   +0.30761177   -1.29988785
  H    +0.15490710   -0.67641126   +1.30968821
  H    +0.43517416   -1.51200800   -0.21807287
  H    +1.26764399   +0.51407502   -1.00067093
  H    -1.63945024   +2.24865919   +1.00284693
 10
 * E = -152.599932 hartree ; s =  2.1000 (fw210)
  C    -1.16036814   -0.09058085   -0.29546504
  C    +0.20312785   -0.53398215   +0.22554591
  O    +1.26767576   +0.39890912   -0.01615102
  H    -1.51338703   +1.65950292   +0.67559578
  H    -2.03305597   -0.61805413   +0.06806912
  H    -1.22309892   +0.30808115   -1.30084617
  H    +0.15372386   -0.67543702   +1.30952996
  H    +0.44019712   -1.51452686   -0.21504121
  H    +1.26825519   +0.51297486   -1.00095299
  H    -1.64466424   +2.27211814   +1.01600487
