 10
 * E = -152.592915 hartree ; s = -1.6000 (bw160)
  C    -1.05689019   -0.43593301   -0.03408007
  C    +0.14888083   +0.52496020   +0.02652712
  O    +1.40850511   -0.14744200   -0.09255521
  H    -1.96982618   +0.13806974   +0.01383322
  H    -1.05693993   -1.00204679   -0.95958720
  H    -1.05044375   -1.12914406   +0.80159923
  H    +0.09246102   +1.22938820   -0.80818114
  H    +0.09740300   +1.11137690   +0.95275076
  H    +1.42632889   -0.75881102   +0.68729485
  H    -3.31474384   +1.05159100   +0.09227475
 10
 * E = -152.592055 hartree ; s = -1.5000 (bw150)
  C    -1.05843222   -0.43436083   -0.03396312
  C    +0.14822412   +0.52508826   +0.02655305
  O    +1.40768383   -0.14741289   -0.09257691
  H    -1.96908003   +0.14261485   +0.01420523
  H    -1.06167926   -0.99996076   -0.95970309
  H    -1.05505182   -1.12715381   +0.80199186
  H    +0.09201280   +1.22966815   -0.80805891
  H    +0.09696379   +1.11158489   +0.95275710
  H    +1.42572723   -0.75843796   +0.68752927
  H    -3.28504006   +1.03175217   +0.09059091
 10
 * E = -152.591101 hartree ; s = -1.4000 (bw140)
  C    -1.06001286   -0.43281509   -0.03384988
  C    +0.14756477   +0.52522003   +0.02657898
  O    +1.40692606   -0.14736686   -0.09259702
  H    -1.96848791   +0.14704300   +0.01456084
  H    -1.06656090   -0.99785518   -0.95983590
  H    -1.05980807   -1.12513818   +0.80240993
  H    +0.09161274   +1.22996078   -0.80793717
  H    +0.09657008   +1.11181402   +0.95275818
  H    +1.42520811   -0.75807389   +0.68774994
  H    -3.25531880   +1.01196304   +0.08891077
 10
 * E = -152.590044 hartree ; s = -1.3000 (bw130)
  C    -1.06164484   -0.43129106   -0.03373875
  C    +0.14690489   +0.52536714   +0.02660809
  O    +1.40623815   -0.14731289   -0.09261289
  H    -1.96814024   +0.15130023   +0.01490216
  H    -1.07155579   -0.99572101   -0.95998513
  H    -1.06468286   -1.12309025   +0.80285495
  H    +0.09126984   +1.23027086   -0.80782023
  H    +0.09623405   +1.11207227   +0.95275923
  H    +1.42477789   -0.75773096   +0.68795576
  H    -3.22557692   +0.99221787   +0.08723380
 10
 * E = -152.588877 hartree ; s = -1.2000 (bw120)
  C    -1.06334720   -0.42978080   -0.03362921
  C    +0.14624924   +0.52554017   +0.02663825
  O    +1.40563122   -0.14725678   -0.09262295
  H    -1.96813282   +0.15534791   +0.01522602
  H    -1.07662690   -0.99355719   -0.96015023
  H    -1.06963807   -1.12100690   +0.80332593
  H    +0.09099308   +1.23060477   -0.80771494
  H    +0.09596893   +1.11235696   +0.95276717
  H    +1.42443709   -0.75741610   +0.68814999
  H    -3.19581390   +0.97251077   +0.08555896
 10
 * E = -152.587589 hartree ; s = -1.1000 (bw110)
  C    -1.06513319   -0.42828111   -0.03351914
  C    +0.14560576   +0.52575026   +0.02666789
  O    +1.40511572   -0.14720599   -0.09263300
  H    -1.96857520   +0.15917174   +0.01553717
  H    -1.08172608   -0.99136217   -0.96033018
  H    -1.07462714   -1.11889017   +0.80382390
  H    +0.09078194   +1.23096090   -0.80763186
  H    +0.09577208   +1.11267021   +0.95279204
  H    +1.42418417   -0.75713406   +0.68833203
  H    -3.16602809   +0.95283701   +0.08388782
 10
 * E = -152.586170 hartree ; s = -1.0000 (bw100)
  C    -1.06702182   -0.42678989   -0.03340907
  C    +0.14498503   +0.52600320   +0.02670122
  O    +1.40469827   -0.14716682   -0.09264305
  H    -1.96960183   +0.16280084   +0.01583774
  H    -1.08679189   -0.98914917   -0.96053601
  H    -1.07959295   -1.11675179   +0.80435677
  H    +0.09062795   +1.23133083   -0.80757682
  H    +0.09563714   +1.11299886   +0.95284126
  H    +1.42401377   -0.75688692   +0.68850295
  H    -3.13622696   +0.93319606   +0.08221826
 10
 * E = -152.584609 hartree ; s = -0.9000 (bw90)
  C    -1.06900622   -0.42531296   -0.03330006
  C    +0.14440082   +0.52630695   +0.02674091
  O    +1.40438071   -0.14714090   -0.09265311
  H    -1.97144811   +0.16636009   +0.01614202
  H    -1.09176191   -0.98694776   -0.96079478
  H    -1.08447090   -1.11462500   +0.80494576
  H    +0.09051894   +1.23169911   -0.80756411
  H    +0.09554718   +1.11333486   +0.95292486
  H    +1.42392010   -0.75668002   +0.68866486
  H    -3.10642314   +0.91358900   +0.08054818
 10
 * E = -152.582891 hartree ; s = -0.8000 (bw80)
  C    -1.07101922   -0.42388787   -0.03319687
  C    +0.14387799   +0.52666203   +0.02678325
  O    +1.40416596   -0.14713296   -0.09266316
  H    -1.97468613   +0.17022625   +0.01648122
  H    -1.09656100   -0.98482101   -0.96118320
  H    -1.08918692   -1.11258184   +0.80565112
  H    +0.09043480   +1.23204890   -0.80760009
  H    +0.09548315   +1.11365821   +0.95304500
  H    +1.42389415   -0.75650805   +0.68881516
  H    -3.07666489   +0.89404224   +0.07888603
 10
 * E = -152.580996 hartree ; s = -0.7000 (bw70)
  C    -1.07282106   -0.42264378   -0.03311009
  C    +0.14343295   +0.52706421   +0.02683087
  O    +1.40404582   -0.14714196   -0.09267798
  H    -1.98070183   +0.17534022   +0.01693685
  H    -1.10109923   -0.98288793   -0.96183092
  H    -1.09364789   -1.11075991   +0.80658618
  H    +0.09035225   +1.23235690   -0.80768317
  H    +0.09542124   +1.11394503   +0.95319896
  H    +1.42392327   -0.75637202   +0.68895909
  H    -3.04718387   +0.87470082   +0.07723923
 10
 * E = -152.578856 hartree ; s = -0.6000 (bw60)
  C    -1.07387518   -0.42188283   -0.03306405
  C    +0.14307893   +0.52749284   +0.02688114
  O    +1.40400189   -0.14716576   -0.09269280
  H    -1.99190397   +0.18336096   +0.01764277
  H    -1.10521518   -0.98129986   -0.96284905
  H    -1.09770087   -1.10932793   +0.80783504
  H    +0.09025911   +1.23259926   -0.80780014
  H    +0.09534292   +1.11416886   +0.95336884
  H    +1.42398994   -0.75627306   +0.68908982
  H    -3.01895705   +0.85620026   +0.07566493
 10
 * E = -152.576322 hartree ; s = -0.5000 (bw50)
  C    -1.07364183   -0.42192675   -0.03308098
  C    +0.14280799   +0.52789714   +0.02692877
  O    +1.40400401   -0.14719699   -0.09270709
  H    -2.00964677   +0.19531719   +0.01867890
  H    -1.10868816   -0.98013989   -0.96412808
  H    -1.10112410   -1.10835108   +0.80927388
  H    +0.09015910   +1.23276277   -0.80792397
  H    +0.09525296   +1.11431704   +0.95352123
  H    +1.42407779   -0.75620800   +0.68920306
  H    -2.99399577   +0.83984816   +0.07427214
 10
 * E = -152.573322 hartree ; s = -0.4000 (bw40)
  C    -1.07220087   -0.42273798   -0.03315877
  C    +0.14259474   +0.52824481   +0.02696793
  O    +1.40401883   -0.14723086   -0.09271820
  H    -2.03218021   +0.21022676   +0.01996215
  H    -1.11149704   -0.97930805   -0.96541505
  H    -1.10389701   -1.10769386   +0.81066879
  H    +0.09006490   +1.23286911   -0.80803083
  H    +0.09516299   +1.11440593   +0.95364189
  H    +1.42416776   -0.75617202   +0.68929408
  H    -2.97323295   +0.82625517   +0.07311324
 10
 * E = -152.570097 hartree ; s = -0.3000 (bw30)
  C    -1.06996616   -0.42406410   -0.03327784
  C    +0.14241111   +0.52854484   +0.02699915
  O    +1.40403682   -0.14726208   -0.09272825
  H    -2.05720816   +0.22669105   +0.02136923
  H    -1.11384182   -0.97864289   -0.96659299
  H    -1.10621586   -1.10718902   +0.81192825
  H    +0.08998076   +1.23294216   -0.80812081
  H    +0.09508309   +1.11446097   +0.95373608
  H    +1.42424819   -0.75615509   +0.68936813
  H    -2.95582197   +0.81485988   +0.07214220
 10
 * E = -152.567156 hartree ; s = -0.2000 (bw20)
  C    -1.06723402   -0.42571618   -0.03342177
  C    +0.14224125   +0.52881313   +0.02702825
  O    +1.40405217   -0.14729277   -0.09273778
  H    -2.08348710   +0.24394117   +0.02283823
  H    -1.11591726   -0.97805177   -0.96766298
  H    -1.10827013   -1.10674396   +0.81306912
  H    +0.08990403   +1.23299719   -0.80819911
  H    +0.09501218   +1.11449908   +0.95381121
  H    +1.42432493   -0.75614927   +0.68943323
  H    -2.94071712   +0.80497801   +0.07129710
 10
 * E = -152.565084 hartree ; s = -0.1000 (bw10)
  C    -1.06415208   -0.42759795   -0.03358476
  C    +0.14207720   +0.52906026   +0.02705419
  O    +1.40406699   -0.14732294   -0.09274783
  H    -2.11047301   +0.26163686   +0.02434215
  H    -1.11785721   -0.97748396   -0.96866101
  H    -1.11019102   -1.10631109   +0.81413386
  H    +0.08983418   +1.23304377   -0.80826899
  H    +0.09494392   +1.11453081   +0.95387792
  H    +1.42439424   -0.75614927   +0.68949304
  H    -2.92728928   +0.79619686   +0.07054990
 10
 * E = -152.564335 hartree ; s =  0.0000 (saddle)
  C    -1.06074875   -0.42969642   -0.03376383
  C    +0.14191230   +0.52929599   +0.02707937
  O    +1.40408618   -0.14735127   -0.09275704
  H    -2.13795192   +0.27964447   +0.02587497
  H    -1.11976311   -0.97690746   -0.96963119
  H    -1.11207470   -1.10587110   +0.81516978
  H    +0.08976506   +1.23308527   -0.80833692
  H    +0.09488115   +1.11456914   +0.95393590
  H    +1.42445581   -0.75616754   +0.68955475
  H    -2.91538841   +0.78841818   +0.06988505
 10
 * E = -152.565060 hartree ; s =  0.1000 (fw10)
  C    -1.05704523   -0.43198693   -0.03395889
  C    +0.14174382   +0.52953018   +0.02710710
  O    +1.40410880   -0.14738221   -0.09276582
  H    -2.16575774   +0.29785798   +0.02741191
  H    -1.12171174   -0.97631079   -0.97061789
  H    -1.11401487   -1.10539987   +0.81623414
  H    +0.08968495   +1.23313478   -0.80839811
  H    +0.09480580   +1.11459327   +0.95400597
  H    +1.42451912   -0.75614927   +0.68960681
  H    -2.90485585   +0.78153704   +0.06929999
 10
 * E = -152.567016 hartree ; s =  0.2000 (fw20)
  C    -1.05286103   -0.43459102   -0.03418114
  C    +0.14157078   +0.52976883   +0.02713303
  O    +1.40414426   -0.14740496   -0.09277588
  H    -2.19390678   +0.31629292   +0.02896822
  H    -1.12380676   -0.97566994   -0.97169109
  H    -1.11609505   -1.10490085   +0.81738721
  H    +0.08959499   +1.23318505   -0.80847008
  H    +0.09472113   +1.11462817   +0.95407901
  H    +1.42457576   -0.75614606   +0.68966080
  H    -2.89660280   +0.77615109   +0.06884119
 10
 * E = -152.569649 hartree ; s =  0.3000 (fw30)
  C    -1.04799207   -0.43764226   -0.03443885
  C    +0.14139880   +0.53002283   +0.02716320
  O    +1.40420725   -0.14742295   -0.09278593
  H    -2.22216698   +0.33479402   +0.03052400
  H    -1.12617588   -0.97496987   -0.97293782
  H    -1.11844619   -1.10436425   +0.81872392
  H    +0.08946799   +1.23323583   -0.80855420
  H    +0.09460313   +1.11467000   +0.95416682
  H    +1.42462602   -0.75613286   +0.68971423
  H    -2.89190796   +0.77310196   +0.06858401
 10
 * E = -152.572389 hartree ; s =  0.4000 (fw40)
  C    -1.04222615   -0.44129887   -0.03474683
  C    +0.14125486   +0.53029483   +0.02719600
  O    +1.40431614   -0.14742295   -0.09279599
  H    -2.24967677   +0.35279821   +0.03203004
  H    -1.12893025   -0.97420995   -0.97445814
  H    -1.12117674   -1.10380174   +0.82034003
  H    +0.08927907   +1.23328822   -0.80866006
  H    +0.09442003   +1.11471393   +0.95427902
  H    +1.42466517   -0.75610322   +0.68976610
  H    -2.89292504   +0.77379785   +0.06865281
 10
 * E = -152.574973 hartree ; s =  0.5000 (fw50)
  C    -1.03573315   -0.44550000   -0.03509874
  C    +0.14119189   +0.53057107   +0.02723516
  O    +1.40449874   -0.14738803   -0.09280710
  H    -2.27490212   +0.36930378   +0.03339690
  H    -1.13198889   -0.97345589   -0.97623883
  H    -1.12420790   -1.10327520   +0.82221599
  H    +0.08899279   +1.23331895   -0.80879179
  H    +0.09413587   +1.11474514   +0.95441821
  H    +1.42468900   -0.75604185   +0.68981211
  H    -2.90083199   +0.77901393   +0.06911690
 10
 * E = -152.577404 hartree ; s =  0.6000 (fw60)
  C    -1.02903218   -0.44995779   -0.03546810
  C    +0.14125274   +0.53081396   +0.02727115
  O    +1.40477713   -0.14730812   -0.09281715
  H    -2.29754194   +0.38411280   +0.03460978
  H    -1.13509201   -0.97279494   -0.97812586
  H    -1.12728611   -1.10285188   +0.82418714
  H    +0.08859803   +1.23330623   -0.80894101
  H    +0.09374110   +1.11474409   +0.95457113
  H    +1.42470910   -0.75594710   +0.68984019
  H    -2.91374710   +0.78752575   +0.06986991
 10
 * E = -152.579700 hartree ; s =  0.7000 (fw70)
  C    -1.02245397   -0.45449019   -0.03584011
  C    +0.14145013   +0.53100288   +0.02730290
  O    +1.40516600   -0.14717476   -0.09282721
  H    -2.31869313   +0.39794283   +0.03573481
  H    -1.13807603   -0.97226576   -0.97998802
  H    -1.13024687   -1.10255183   +0.82612183
  H    +0.08810695   +1.23323479   -0.80909818
  H    +0.09325108   +1.11469114   +0.95472512
  H    +1.42473714   -0.75582222   +0.68984917
  H    -2.92915621   +0.79768597   +0.07076687
 10
 * E = -152.581858 hartree ; s =  0.8000 (fw80)
  C    -1.01610385   -0.45903583   -0.03621001
  C    +0.14177081   +0.53112194   +0.02732724
  O    +1.40567727   -0.14698215   -0.09282774
  H    -2.33921306   +0.41135219   +0.03681909
  H    -1.14088913   -0.97187312   -0.98176290
  H    -1.13304304   -1.10237296   +0.82795595
  H    +0.08753808   +1.23309190   -0.80925799
  H    +0.09268698   +1.11457317   +0.95487222
  H    +1.42479907   -0.75567300   +0.68983116
  H    -2.94577820   +0.80866214   +0.07173526
 10
 * E = -152.583874 hartree ; s =  0.9000 (fw90)
  C    -1.01001725   -0.46357194   -0.03657726
  C    +0.14219891   +0.53115475   +0.02734206
  O    +1.40632813   -0.14672179   -0.09282192
  H    -2.35947312   +0.42458003   +0.03788486
  H    -1.14351598   -0.97162598   -0.98342610
  H    -1.13565874   -1.10231315   +0.82966307
  H    +0.08690413   +1.23286594   -0.80941781
  H    +0.09206519   +1.11437789   +0.95500504
  H    +1.42492026   -0.75550685   +0.68977878
  H    -2.96313307   +0.82014423   +0.07275023
 10
 * E = -152.585748 hartree ; s =  1.0000 (fw100)
  C    -1.00421325   -0.46807999   -0.03693710
  C    +0.14271804   +0.53108913   +0.02734100
  O    +1.40712983   -0.14639106   -0.09280181
  H    -2.37962577   +0.43773009   +0.03894215
  H    -1.14595599   -0.97152598   -0.98496494
  H    -1.13809192   -1.10237986   +0.83123421
  H    +0.08622678   +1.23255109   -0.80957710
  H    +0.09140584   +1.11409317   +0.95511724
  H    +1.42513190   -0.75533380   +0.68968776
  H    -2.98102614   +0.83200523   +0.07380011
 10
 * E = -152.587485 hartree ; s =  1.1000 (fw110)
  C    -0.99870821   -0.47254414   -0.03728794
  C    +0.14330807   +0.53090603   +0.02732089
  O    +1.40809613   -0.14597883   -0.09276688
  H    -2.39974881   +0.45084786   +0.03999204
  H    -1.14820926   -0.97158206   -0.98637995
  H    -1.14034515   -1.10257510   +0.83266880
  H    +0.08551980   +1.23213623   -0.80973587
  H    +0.09072479   +1.11370318   +0.95520084
  H    +1.42546316   -0.75516287   +0.68954912
  H    -2.99935421   +0.84417893   +0.07487910
 10
 * E = -152.589089 hartree ; s =  1.2000 (fw120)
  C    -0.99351593   -0.47694583   -0.03762979
  C    +0.14395896   +0.53059276   +0.02728120
  O    +1.40923907   -0.14547823   -0.09271396
  H    -2.41988717   +0.46396193   +0.04103716
  H    -1.15027885   -0.97180589   -0.98766905
  H    -1.14241687   -1.10291009   +0.83396583
  H    +0.08479377   +1.23160388   -0.80989512
  H    +0.09003474   +1.11319622   +0.95525483
  H    +1.42594897   -0.75499881   +0.68935385
  H    -3.01804422   +0.85661777   +0.07598403
 10
 * E = -152.590568 hartree ; s =  1.3000 (fw130)
  C    -0.98865226   -0.48127080   -0.03796423
  C    +0.14465800   +0.53013291   +0.02721823
  O    +1.41056685   -0.14488290   -0.09263776
  H    -2.44006681   +0.47708817   +0.04207700
  H    -1.15217382   -0.97220491   -0.98883484
  H    -1.14431714   -1.10338792   +0.83512789
  H    +0.08406774   +1.23094610   -0.81005493
  H    +0.08935104   +1.11255488   +0.95527176
  H    +1.42662790   -0.75485011   +0.68909508
  H    -3.03704010   +0.86929104   +0.07711223
 10
 * E = -152.591930 hartree ; s =  1.4000 (fw140)
  C    -0.98412727   -0.48550475   -0.03828703
  C    +0.14539514   +0.52951113   +0.02712774
  O    +1.41208821   -0.14418121   -0.09253775
  H    -2.46030200   +0.49022976   +0.04311683
  H    -1.15390321   -0.97278118   -0.98988417
  H    -1.14605603   -1.10401181   +0.83616086
  H    +0.08335176   +1.23014703   -0.81021900
  H    +0.08867793   +1.11176905   +0.95525114
  H    +1.42752910   -0.75472311   +0.68876117
  H    -3.05629103   +0.88216487   +0.07825684
 10
 * E = -152.593181 hartree ; s =  1.5000 (fw150)
  C    -0.97994993   -0.48963180   -0.03859924
  C    +0.14615980   +0.52871682   +0.02701185
  O    +1.41380805   -0.14337210   -0.09240810
  H    -2.48058907   +0.50338881   +0.04415402
  H    -1.15548225   -0.97354106   -0.99081818
  H    -1.14764197   -1.10478127   +0.83707317
  H    +0.08265484   +1.22919292   -0.81038884
  H    +0.08802281   +1.11082815   +0.95518708
  H    +1.42868798   -0.75462679   +0.68834579
  H    -3.07574994   +0.89521015   +0.07942103
 10
 * E = -152.594332 hartree ; s =  1.6000 (fw160)
  C    -0.97612875   -0.49364402   -0.03890088
  C    +0.14695304   +0.52774209   +0.02686897
  O    +1.41572583   -0.14244604   -0.09225093
  H    -2.50092218   +0.51655896   +0.04518485
  H    -1.15692478   -0.97448301   -0.99164477
  H    -1.14908819   -1.10568720   +0.83787011
  H    +0.08198807   +1.22807427   -0.81056879
  H    +0.08738621   +1.10972325   +0.95508021
  H    +1.43013316   -0.75456121   +0.68784517
  H    -3.09537023   +0.90839724   +0.08059792
