 10
 * E = -152.596758 hartree ; s = -2.1000 (bw210)
  C    -1.33317520   -0.30066791   +0.05932288
  C    +0.00060485   +0.37436378   -0.33601219
  O    +1.16436608   -0.39354698   -0.00153726
  H    -2.16574291   +0.33743990   -0.22048909
  H    -1.44437493   -1.25654983   -0.44299488
  H    -1.37703392   -0.46790378   +1.13205874
  H    +0.02654988   +0.51932075   -1.41951100
  H    +0.04469378   +1.36551690   +0.12467574
  H    +1.08063382   -0.54452493   +0.97450892
  H    +0.07184216   +2.98159026   +1.09960379
 10
 * E = -152.596361 hartree ; s = -2.0000 (bw200)
  C    -1.33357419   -0.29945610   +0.05959594
  C    +0.00053288   +0.37566184   -0.33407115
  O    +1.16508682   -0.39158107   -0.00125521
  H    -2.16540002   +0.34022814   -0.21884123
  H    -1.44585023   -1.25404786   -0.44492479
  H    -1.37778696   -0.46902775   +1.13195400
  H    +0.02655094   +0.52357693   -1.41714503
  H    +0.04415613   +1.36537510   +0.12892397
  H    +1.07948500   -0.54846518   +0.97369188
  H    +0.07129499   +2.95081701   +1.08188324
 10
 * E = -152.595917 hartree ; s = -1.9000 (bw190)
  C    -1.33393880   -0.29823793   +0.05985682
  C    +0.00046303   +0.37696415   -0.33211796
  O    +1.16575518   -0.38965276   -0.00099115
  H    -2.16505392   +0.34289096   -0.21739605
  H    -1.44715891   -1.25164910   -0.44667319
  H    -1.37857279   -0.46992524   +1.13186191
  H    +0.02657581   +0.52805114   -1.41472618
  H    +0.04362590   +1.36512799   +0.13336218
  H    +1.07844886   -0.55215886   +0.97287589
  H    +0.07074200   +2.91997497   +1.06418280
 10
 * E = -152.595422 hartree ; s = -1.8000 (bw180)
  C    -1.33425208   -0.29701817   +0.06010501
  C    +0.00039477   +0.37827704   -0.33016002
  O    +1.16635790   -0.38776412   -0.00074191
  H    -2.16469990   +0.34541884   -0.21612920
  H    -1.44828816   -1.24935724   -0.44824485
  H    -1.37934222   -0.47061211   +1.13178622
  H    +0.02663719   +0.53276822   -1.41225705
  H    +0.04310307   +1.36477608   +0.13800306
  H    +1.07749476   -0.55558209   +0.97207578
  H    +0.07018001   +2.88906521   +1.04650879
 10
 * E = -152.594869 hartree ; s = -1.7000 (bw170)
  C    -1.33450397   -0.29579524   +0.06034314
  C    +0.00033285   +0.37959999   -0.32821106
  O    +1.16688708   -0.38592207   -0.00050589
  H    -2.16434009   +0.34781177   -0.21501476
  H    -1.44922907   -1.24717017   -0.44964505
  H    -1.38006084   -0.47109419   +1.13172697
  H    +0.02673880   +0.53774881   -1.40974080
  H    +0.04259083   +1.36431306   +0.14285880
  H    +1.07660311   -0.55872593   +0.97129894
  H    +0.06960585   +2.85808610   +1.02886498
 10
 * E = -152.594254 hartree ; s = -1.6000 (bw160)
  C    -1.33468494   -0.29457179   +0.06057121
  C    +0.00027676   +0.38093297   -0.32627797
  O    +1.16733212   -0.38412180   -0.00027993
  H    -2.16397285   +0.35006607   -0.21402784
  H    -1.44997626   -1.24508678   -0.45087698
  H    -1.38069476   -0.47138788   +1.13168675
  H    +0.02689279   +0.54300882   -1.40718274
  H    +0.04209181   +1.36373992   +0.14793202
  H    +1.07575113   -0.56158612   +0.97055282
  H    +0.06902217   +2.82704301   +1.01125924
 10
 * E = -152.593571 hartree ; s = -1.5000 (bw150)
  C    -1.33478813   -0.29334515   +0.06079188
  C    +0.00022808   +0.38227708   -0.32436605
  O    +1.16768719   -0.38236493   -0.00006191
  H    -2.16360292   +0.35217696   -0.21314888
  H    -1.45051708   -1.24310023   -0.45195120
  H    -1.38122024   -0.47150906   +1.13166714
  H    +0.02710499   +0.54855090   -1.40458500
  H    +0.04160709   +1.36306790   +0.15322114
  H    +1.07492402   -0.56416323   +0.96984425
  H    +0.06842791   +2.79594111   +0.99369691
 10
 * E = -152.592814 hartree ; s = -1.4000 (bw140)
  C    -1.33481088   -0.29211587   +0.06101202
  C    +0.00018997   +0.38363177   -0.32248482
  O    +1.16794490   -0.38065304   +0.00014923
  H    -2.16323889   +0.35414126   -0.21235776
  H    -1.45085096   -1.24120577   -0.45287621
  H    -1.38162401   -0.47147996   +1.13166872
  H    +0.02738175   +0.55437082   -1.40195288
  H    +0.04114406   +1.36231222   +0.15871824
  H    +1.07411489   -0.56646620   +0.96917483
  H    +0.06782517   +2.76478478   +0.97618219
 10
 * E = -152.591976 hartree ; s = -1.3000 (bw130)
  C    -1.33475478   -0.29088606   +0.06123215
  C    +0.00016775   +0.38499495   -0.32063906
  O    +1.16810524   -0.37897978   +0.00035402
  H    -2.16288698   +0.35595105   -0.21164125
  H    -1.45096476   -1.23939706   -0.45367103
  H    -1.38190502   -0.47132597   +1.13169202
  H    +0.02773577   +0.56046215   -1.39928903
  H    +0.04071119   +1.36149888   +0.16440001
  H    +1.07332485   -0.56851201   +0.96854721
  H    +0.06721186   +2.73358079   +0.95872411
 10
 * E = -152.591051 hartree ; s = -1.2000 (bw120)
  C    -1.33462621   -0.28965678   +0.06145388
  C    +0.00016404   +0.38637187   -0.31883191
  O    +1.16816717   -0.37734675   +0.00055511
  H    -2.16256312   +0.35760103   -0.21098824
  H    -1.45085892   -1.23766716   -0.45435208
  H    -1.38207913   -0.47107514   +1.13173593
  H    +0.02818080   +0.56680118   -1.39659814
  H    +0.04031590   +1.36067178   +0.17024213
  H    +1.07255912   -0.57032178   +0.96796512
  H    +0.06659007   +2.70233127   +0.94132476
 10
 * E = -152.590032 hartree ; s = -1.1000 (bw110)
  C    -1.33443199   -0.28843386   +0.06168725
  C    +0.00018680   +0.38776307   -0.31706711
  O    +1.16812906   -0.37574916   +0.00075514
  H    -2.16227684   +0.35908484   -0.21038816
  H    -1.45053189   -1.23600980   -0.45493577
  H    -1.38216009   -0.47075922   +1.13180419
  H    +0.02873009   +0.57336618   -1.39388506
  H    +0.03996823   +1.35989175   +0.17620384
  H    +1.07182885   -0.57192204   +0.96742804
  H    +0.06595718   +2.67103995   +0.92398417
 10
 * E = -152.588911 hartree ; s = -1.0000 (bw100)
  C    -1.33418276   -0.28722204   +0.06193490
  C    +0.00024818   +0.38918286   -0.31534517
  O    +1.16799201   -0.37418809   +0.00095516
  H    -2.16203606   +0.36040090   -0.20983305
  H    -1.44999476   -1.23442122   -0.45544113
  H    -1.38217807   -0.47041314   +1.13189417
  H    +0.02940479   +0.58013275   -1.39115606
  H    +0.03967189   +1.35924191   +0.18223699
  H    +1.07115100   -0.57334287   +0.96693588
  H    +0.06531687   +2.63970684   +0.90670387
 10
 * E = -152.587682 hartree ; s = -0.9000 (bw90)
  C    -1.33389276   -0.28603087   +0.06220425
  C    +0.00035719   +0.39063915   -0.31366714
  O    +1.16775704   -0.37266617   +0.00115519
  H    -2.16185083   +0.36154498   -0.20932187
  H    -1.44926607   -1.23289874   -0.45588299
  H    -1.38217280   -0.47006812   +1.13200903
  H    +0.03022607   +0.58708508   -1.38841283
  H    +0.03942899   +1.35883714   +0.18828707
  H    +1.07054508   -0.57461078   +0.96648396
  H    +0.06467022   +2.60833774   +0.88948499
 10
 * E = -152.586337 hartree ; s = -0.8000 (bw80)
  C    -1.33358108   -0.28487727   +0.06250006
  C    +0.00052918   +0.39215100   -0.31202616
  O    +1.16742683   -0.37118607   +0.00135416
  H    -2.16172279   +0.36252290   -0.20885302
  H    -1.44838499   -1.23144985   -0.45627405
  H    -1.38218492   -0.46975696   +1.13215293
  H    +0.03121722   +0.59420619   -1.38566006
  H    +0.03923108   +1.35882602   +0.19428424
  H    +1.07003018   -0.57575699   +0.96607384
  H    +0.06401510   +2.57693110   +0.87232007
 10
 * E = -152.584868 hartree ; s = -0.7000 (bw70)
  C    -1.33326410   -0.28377710   +0.06282498
  C    +0.00078001   +0.39373113   -0.31042276
  O    +1.16701090   -0.36975623   +0.00155102
  H    -2.16164920   +0.36334419   -0.20843285
  H    -1.44740392   -1.23008725   -0.45661696
  H    -1.38224897   -0.46950983   +1.13232599
  H    +0.03239411   +0.60149192   -1.38289880
  H    +0.03905698   +1.35940917   +0.20015493
  H    +1.06962483   -0.57680581   +0.96570026
  H    +0.06335415   +2.54549425   +0.85520592
 10
 * E = -152.583269 hartree ; s = -0.6000 (bw60)
  C    -1.33296617   -0.28275315   +0.06318217
  C    +0.00112503   +0.39539487   -0.30884792
  O    +1.16651718   -0.36838618   +0.00174099
  H    -2.16161484   +0.36402312   -0.20807513
  H    -1.44639211   -1.22882991   -0.45691277
  H    -1.38239503   -0.46934579   +1.13253077
  H    +0.03376786   +0.60895703   -1.38012910
  H    +0.03888182   +1.36089506   +0.20584623
  H    +1.06934119   -0.57778318   +0.96536210
  H    +0.06268686   +2.51404103   +0.83814581
 10
 * E = -152.581532 hartree ; s = -0.5000 (bw50)
  C    -1.33270688   -0.28183026   +0.06357217
  C    +0.00157113   +0.39712210   -0.30730697
  O    +1.16595890   -0.36708811   +0.00192409
  H    -2.16159681   +0.36458405   -0.20779995
  H    -1.44543486   -1.22771179   -0.45715513
  H    -1.38263208   -0.46929499   +1.13276893
  H    +0.03534216   +0.61662482   -1.37737897
  H    +0.03867915   +1.36402093   +0.21148885
  H    +1.06918615   -0.57870183   +0.96505623
  H    +0.06201692   +2.48261477   +0.82115285
 10
 * E = -152.579642 hartree ; s = -0.4000 (bw40)
  C    -1.33250896   -0.28103490   +0.06399022
  C    +0.00211300   +0.39868317   -0.30590411
  O    +1.16535881   -0.36589323   +0.00209501
  H    -2.16156508   +0.36504919   -0.20763908
  H    -1.44462626   -1.22678305   -0.45734987
  H    -1.38294218   -0.46936590   +1.13303612
  H    +0.03708580   +0.62448891   -1.37482091
  H    +0.03850293   +1.37167127   +0.21836286
  H    +1.06915017   -0.57956175   +0.96478001
  H    +0.06135016   +2.45151291   +0.80437001
 10
 * E = -152.577486 hartree ; s = -0.3000 (bw30)
  C    -1.33238408   -0.28040783   +0.06439399
  C    +0.00265224   +0.39922822   -0.30509182
  O    +1.16479312   -0.36489520   +0.00223895
  H    -2.16149787   +0.36540904   -0.20760098
  H    -1.44403784   -1.22615810   -0.45752979
  H    -1.38325919   -0.46952782   +1.13329119
  H    +0.03879292   +0.63197199   -1.37291111
  H    +0.03864105   +1.39179372   +0.23058897
  H    +1.06920203   -0.58028885   +0.96455513
  H    +0.06073896   +2.42310614   +0.78906724
 10
 * E = -152.574843 hartree ; s = -0.2000 (bw20)
  C    -1.33231317   -0.27997919   +0.06470779
  C    +0.00302584   +0.39817781   -0.30524900
  O    +1.16437296   -0.36420622   +0.00233896
  H    -2.16142908   +0.36563976   -0.20762374
  H    -1.44365573   -1.22585222   -0.45771183
  H    -1.38349518   -0.46968394   +1.13347906
  H    +0.04009311   +0.63778817   -1.37182682
  H    +0.03928082   +1.42583411   +0.24935412
  H    +1.06927400   -0.58078574   +0.96441806
  H    +0.06027805   +2.40171575   +0.77755607
 10
 * E = -152.572284 hartree ; s = -0.1000 (bw10)
  C    -1.33226502   -0.27967121   +0.06494116
  C    +0.00325920   +0.39621985   -0.30599302
  O    +1.16407027   -0.36372413   +0.00240776
  H    -2.16137774   +0.36579586   -0.20765390
  H    -1.44337899   -1.22570404   -0.45788698
  H    -1.38366613   -0.46980406   +1.13361611
  H    +0.04104510   +0.64219409   -1.37112196
  H    +0.04018783   +1.46561398   +0.27086994
  H    +1.06933485   -0.58112282   +0.96434714
  H    +0.05993726   +2.38587325   +0.76903526
 10
 * E = -152.571139 hartree ; s =  0.0000 (saddle)
  C    -1.33221905   -0.27941714   +0.06513466
  C    +0.00341365   +0.39381586   -0.30703143
  O    +1.16382730   -0.36333988   +0.00246632
  H    -2.16133868   +0.36591976   -0.20768000
  H    -1.44316319   -1.22561670   -0.45804485
  H    -1.38380750   -0.46989607   +1.13373239
  H    +0.04182662   +0.64591060   -1.37051994
  H    +0.04120589   +1.50741002   +0.29334710
  H    +1.06938187   -0.58138312   +0.96429617
  H    +0.05966360   +2.37306563   +0.76215312
 10
 * E = -152.572484 hartree ; s =  0.1000 (fw10)
  C    -1.33217399   -0.27918013   +0.06531423
  C    +0.00354390   +0.39116779   -0.30822403
  O    +1.16360300   -0.36298487   +0.00251624
  H    -2.16131902   +0.36602394   -0.20769306
  H    -1.44299109   -1.22554322   -0.45818809
  H    -1.38395293   -0.46999192   +1.13384209
  H    +0.04255802   +0.64943381   -1.36991597
  H    +0.04227808   +1.54991188   +0.31622889
  H    +1.06943381   -0.58162925   +0.96428681
  H    +0.05942184   +2.36178404   +0.75606989
 10
 * E = -152.576356 hartree ; s =  0.2000 (fw20)
  C    -1.33212213   -0.27894677   +0.06548621
  C    +0.00364815   +0.38816789   -0.30960994
  O    +1.16339292   -0.36263827   +0.00256704
  H    -2.16129308   +0.36613506   -0.20770311
  H    -1.44289109   -1.22548023   -0.45829181
  H    -1.38409689   -0.47008187   +1.13395689
  H    +0.04329993   +0.65300414   -1.36927989
  H    +0.04339624   +1.59304987   +0.33940791
  H    +1.06947084   -0.58186420   +0.96426723
  H    +0.05922075   +2.35232393   +0.75097812
 10
 * E = -152.581593 hartree ; s =  0.3000 (fw30)
  C    -1.33205916   -0.27869594   +0.06567301
  C    +0.00373493   +0.38458589   -0.31129591
  O    +1.16317808   -0.36225884   +0.00263213
  H    -2.16125023   +0.36627107   -0.20771317
  H    -1.44291387   -1.22540986   -0.45833308
  H    -1.38424980   -0.47016919   +1.13408920
  H    +0.04415825   +0.65704815   -1.36855916
  H    +0.04456678   +1.63662921   +0.36279278
  H    +1.06949097   -0.58212297   +0.96423602
  H    +0.05907575   +2.34552877   +0.74732893
 10
 * E = -152.586445 hartree ; s =  0.4000 (fw40)
  C    -1.33197925   -0.27840014   +0.06589526
  C    +0.00380478   +0.37978096   -0.31358777
  O    +1.16293994   -0.36178576   +0.00272209
  H    -2.16114227   +0.36649703   -0.20773010
  H    -1.44321601   -1.22532520   -0.45823307
  H    -1.38440483   -0.47024222   +1.13426383
  H    +0.04532191   +0.66231928   -1.36766485
  H    +0.04581616   +1.67965186   +0.38581199
  H    +1.06946290   -0.58244789   +0.96416089
  H    +0.05905617   +2.34467310   +0.74690401
 10
 * E = -152.590116 hartree ; s =  0.5000 (fw50)
  C    -1.33189618   -0.27808104   +0.06616197
  C    +0.00382913   +0.37319111   -0.31678875
  O    +1.16271610   -0.36118620   +0.00285703
  H    -2.16083586   +0.36696005   -0.20775021
  H    -1.44421722   -1.22526116   -0.45778909
  H    -1.38446677   -0.47021417   +1.13450726
  H    +0.04700099   +0.66932501   -1.36658584
  H    +0.04707613   +1.71622806   +0.40523703
  H    +1.06930099   -0.58288393   +0.96398996
  H    +0.05927526   +2.35561807   +0.75289376
 10
 * E = -152.593233 hartree ; s =  0.6000 (fw60)
  C    -1.33187183   -0.27787678   +0.06639322
  C    +0.00376404   +0.36604722   -0.32036388
  O    +1.16262879   -0.36059987   +0.00302001
  H    -2.16024796   +0.36774218   -0.20776026
  H    -1.44618574   -1.22535483   -0.45690589
  H    -1.38427996   -0.46994694   +1.13478985
  H    +0.04892984   +0.67648797   -1.36559312
  H    +0.04822815   +1.74377282   +0.41974812
  H    +1.06892898   -0.58337978   +0.96373119
  H    +0.05966103   +2.37495524   +0.76346514
 10
 * E = -152.596075 hartree ; s =  0.7000 (fw70)
  C    -1.33193692   -0.27783920   +0.06655515
  C    +0.00360899   +0.35910282   -0.32397710
  O    +1.16272298   -0.36009980   +0.00318988
  H    -2.15940921   +0.36883281   -0.20772375
  H    -1.44909412   -1.22569614   -0.45564274
  H    -1.38382115   -0.46939183   +1.13509890
  H    +0.05088674   +0.68287513   -1.36478293
  H    +0.04934101   +1.76847318   +0.43273520
  H    +1.06833682   -0.58391477   +0.96343696
  H    +0.06008596   +2.39647689   +0.77525202
 10
 * E = -152.598670 hartree ; s =  0.8000 (fw80)
  C    -1.33210202   -0.27797415   +0.06664722
  C    +0.00337615   +0.35243995   -0.32759297
  O    +1.16300504   -0.35969286   +0.00336715
  H    -2.15836515   +0.37020920   -0.20761104
  H    -1.45290103   -1.22630100   -0.45403775
  H    -1.38311312   -0.46853880   +1.13543704
  H    +0.05280606   +0.68837487   -1.36418023
  H    +0.05046393   +1.79266826   +0.44545714
  H    +1.06753298   -0.58451010   +0.96312579
  H    +0.06052411   +2.41866687   +0.78743790
 10
 * E = -152.601037 hartree ; s =  0.9000 (fw90)
  C    -1.33237296   -0.27827683   +0.06667421
  C    +0.00307981   +0.34607025   -0.33120407
  O    +1.16347124   -0.35937377   +0.00355501
  H    -2.15716179   +0.37183378   -0.20739513
  H    -1.45754400   -1.22715615   -0.45212425
  H    -1.38219393   -0.46740106   +1.13580587
  H    +0.05463913   +0.69297926   -1.36382194
  H    +0.05160695   +1.81675005   +0.45810924
  H    +1.06652280   -0.58518321   +0.96280777
  H    +0.06096915   +2.44125799   +0.79987887
